Program Version,EnergyPlus, Version 9.0.0-2ef880da82, YMD=2018.10.23 17:56
! This file shows details about the branches, nodes, and other
! elements of the flow connections.
! This file is intended for use in "debugging" potential problems
! that may also be detected by the program, but may be more easily
! identified by "eye".
! This file is also intended to support software which draws a
! schematic diagram of the HVAC system.
! ===============================================================
! #Nodes,<Number of Unique Nodes>
 #Nodes,19
! <Node>,<NodeNumber>,<Node Name>,<Node Fluid Type>,<# Times Node Referenced After Definition>
 Node,1,OUTSIDE AIR INLET NODE,Air,3
 Node,2,ZONE 1 INLET NODE,Air,3
 Node,3,ZONE 2 INLET NODE,Air,3
 Node,4,ZONE 3 INLET NODE,Air,3
 Node,5,ZONE 1 NODE,Air,1
 Node,6,ZONE 2 NODE,Air,1
 Node,7,ZONE 3 NODE,Air,1
 Node,8,OUTDOOR AIR MIXER INLET NODE,Air,3
 Node,9,MIXED AIR NODE,Air,5
 Node,10,AIR LOOP OUTLET NODE,Air,3
 Node,11,ZONE 1 OUTLET NODE,Air,1
 Node,12,ZONE 2 OUTLET NODE,Air,1
 Node,13,ZONE 3 OUTLET NODE,Air,1
 Node,14,ZONE EQUIPMENT INLET NODE,Air,2
 Node,15,RETURN AIR MIXER OUTLET,Air,2
 Node,16,RELIEF AIR OUTLET NODE,Air,1
 Node,17,DX COOLING COIL AIR INLET NODE,Air,1
 Node,18,HEATING COIL AIR INLET NODE,Air,1
 Node,19,SUPPHEATING COIL AIR INLET NODE,Air,1
! ===============================================================
! <#Branch Lists>,<Number of Branch Lists>
 #Branch Lists,1
! <Branch List>,<Branch List Count>,<Branch List Name>,<Loop Name>,<Loop Type>,<Number of Branches>
! <Branch>,<Branch Count>,<Branch Name>,<Loop Name>,<Loop Type>,<Branch Inlet Node Name>,<Branch Outlet Node Name>
 Branch List,1,AIR LOOP BRANCHES,TYPICAL TERMINAL REHEAT 1,Air,1
   Branch,1,AIR LOOP MAIN BRANCH,TYPICAL TERMINAL REHEAT 1,Air,OUTDOOR AIR MIXER INLET NODE,AIR LOOP OUTLET NODE
! ===============================================================
! <#Supply Air Paths>,<Number of Supply Air Paths>
 #Supply Air Paths,1
! <Supply Air Path>,<Supply Air Path Count>,<Supply Air Path Name>,<AirLoopHVAC Name>
! <#Components on Supply Air Path>,<Number of Components>
! <Supply Air Path Component>,<Component Count>,<Component Type>,<Component Name>,<AirLoopHVAC Name>
! <#Outlet Nodes on Supply Air Path Component>,<Number of Nodes>
! <Supply Air Path Component Nodes>,<Node Count>,<Component Type>,<Component Name>,<Inlet Node Name>,<Outlet Node Name>,<AirLoopHVAC Name>
 Supply Air Path,1,HEATPUMPSUPPLYPATH,TYPICAL TERMINAL REHEAT 1
   #Components on Supply Air Path,1
   Supply Air Path Component,1,AIRLOOPHVAC:ZONESPLITTER,ZONE SUPPLY AIR SPLITTER,TYPICAL TERMINAL REHEAT 1
     #Outlet Nodes on Supply Air Path Component,3
     Supply Air Path Component Nodes,1,AIRLOOPHVAC:ZONESPLITTER,ZONE SUPPLY AIR SPLITTER,ZONE EQUIPMENT INLET NODE,ZONE 1 INLET NODE,TYPICAL TERMINAL REHEAT 1
     Supply Air Path Component Nodes,2,AIRLOOPHVAC:ZONESPLITTER,ZONE SUPPLY AIR SPLITTER,ZONE EQUIPMENT INLET NODE,ZONE 2 INLET NODE,TYPICAL TERMINAL REHEAT 1
     Supply Air Path Component Nodes,3,AIRLOOPHVAC:ZONESPLITTER,ZONE SUPPLY AIR SPLITTER,ZONE EQUIPMENT INLET NODE,ZONE 3 INLET NODE,TYPICAL TERMINAL REHEAT 1
! <#Nodes on Supply Air Path>,<Number of Nodes>
! <Supply Air Path Node>,<Node Type>,<Node Count>,<Node Name>,<AirLoopHVAC Name>
#Nodes on Supply Air Path,4
   Supply Air Path Node,Inlet Node,1,ZONE EQUIPMENT INLET NODE,TYPICAL TERMINAL REHEAT 1
   Supply Air Path Node,Outlet Node,2,ZONE 1 INLET NODE,TYPICAL TERMINAL REHEAT 1
   Supply Air Path Node,Outlet Node,3,ZONE 2 INLET NODE,TYPICAL TERMINAL REHEAT 1
   Supply Air Path Node,Outlet Node,4,ZONE 3 INLET NODE,TYPICAL TERMINAL REHEAT 1
! ===============================================================
! <#Return Air Paths>,<Number of Return Air Paths>
 #Return Air Paths,1
! <Return Air Path>,<Return Air Path Count>,<Return Air Path Name>,<AirLoopHVAC Name>
! <#Components on Return Air Path>,<Number of Components>
! <Return Air Path Component>,<Component Count>,<Component Type>,<Component Name>,<AirLoopHVAC Name>
! <#Inlet Nodes on Return Air Path Component>,<Number of Nodes>
! <Return Air Path Component Nodes>,<Node Count>,<Component Type>,<Component Name>,<Inlet Node Name>,<Outlet Node Name>,<AirLoopHVAC Name>
 Return Air Path,1,HEATPUMPRETURNPATH,TYPICAL TERMINAL REHEAT 1
   #Components on Return Air Path,1
   Return Air Path Component,1,AIRLOOPHVAC:ZONEMIXER,ZONE RETURN AIR MIXER,TYPICAL TERMINAL REHEAT 1
     #Inlet Nodes on Return Air Path Component,3
     Return Air Path Component Nodes,1,AIRLOOPHVAC:ZONEMIXER,ZONE RETURN AIR MIXER,ZONE 1 OUTLET NODE,RETURN AIR MIXER OUTLET,TYPICAL TERMINAL REHEAT 1
     Return Air Path Component Nodes,2,AIRLOOPHVAC:ZONEMIXER,ZONE RETURN AIR MIXER,ZONE 2 OUTLET NODE,RETURN AIR MIXER OUTLET,TYPICAL TERMINAL REHEAT 1
     Return Air Path Component Nodes,3,AIRLOOPHVAC:ZONEMIXER,ZONE RETURN AIR MIXER,ZONE 3 OUTLET NODE,RETURN AIR MIXER OUTLET,TYPICAL TERMINAL REHEAT 1
! <#Nodes on Return Air Path>,<Number of Nodes>
! <Return Air Path Node>,<Node Type>,<Node Count>,<Node Name>,<AirLoopHVAC Name>
   #Nodes on Return Air Path,4
   Return Air Path Node,Outlet Node,1,RETURN AIR MIXER OUTLET,TYPICAL TERMINAL REHEAT 1
   Return Air Path Node,Inlet Node,2,ZONE 1 OUTLET NODE,TYPICAL TERMINAL REHEAT 1
   Return Air Path Node,Inlet Node,3,ZONE 2 OUTLET NODE,TYPICAL TERMINAL REHEAT 1
   Return Air Path Node,Inlet Node,4,ZONE 3 OUTLET NODE,TYPICAL TERMINAL REHEAT 1
! ===============================================================
! #Outdoor Air Nodes,<Number of Outdoor Air Nodes>
 #Outdoor Air Nodes,1
! <Outdoor Air Node>,<NodeNumber>,<Node Name>
 Outdoor Air Node,1,OUTSIDE AIR INLET NODE
! ===============================================================
! <#Component Sets>,<Number of Component Sets>
 #Component Sets,7
! <Component Set>,<Component Set Count>,<Parent Object Type>,<Parent Object Name>,<Component Type>,<Component Name>,<Inlet Node ID>,<Outlet Node ID>,<Description>
 Component Set,1,BRANCH,AIR LOOP MAIN BRANCH,AIRLOOPHVAC:OUTDOORAIRSYSTEM,OA SYS 1,OUTDOOR AIR MIXER INLET NODE,MIXED AIR NODE,Air Nodes
 Component Set,2,BRANCH,AIR LOOP MAIN BRANCH,AIRLOOPHVAC:UNITARYHEATPUMP:AIRTOAIR,DXAC HEAT PUMP 1,MIXED AIR NODE,AIR LOOP OUTLET NODE,Air Nodes
 Component Set,3,AIRLOOPHVAC:OUTDOORAIRSYSTEM,OA SYS 1,OUTDOORAIR:MIXER,OA MIXING BOX 1,OUTSIDE AIR INLET NODE,MIXED AIR NODE,Air Nodes
 Component Set,4,AIRLOOPHVAC:UNITARYHEATPUMP:AIRTOAIR,DXAC HEAT PUMP 1,FAN:ONOFF,SUPPLY FAN 1,MIXED AIR NODE,DX COOLING COIL AIR INLET NODE,Air Nodes
 Component Set,5,AIRLOOPHVAC:UNITARYHEATPUMP:AIRTOAIR,DXAC HEAT PUMP 1,COIL:COOLING:DX:SINGLESPEED,HEAT PUMP ACDXCOIL 1,DX COOLING COIL AIR INLET NODE,HEATING COIL AIR INLET NODE,Air Nodes
 Component Set,6,AIRLOOPHVAC:UNITARYHEATPUMP:AIRTOAIR,DXAC HEAT PUMP 1,COIL:HEATING:DX:SINGLESPEED,HEAT PUMP DX HEATING COIL 1,HEATING COIL AIR INLET NODE,SUPPHEATING COIL AIR INLET NODE,Air Nodes
 Component Set,7,AIRLOOPHVAC:UNITARYHEATPUMP:AIRTOAIR,DXAC HEAT PUMP 1,COIL:HEATING:FUEL,HEAT PUMP DX SUPP HEATING COIL 1,SUPPHEATING COIL AIR INLET NODE,AIR LOOP OUTLET NODE,Air Nodes
! ===============================================================
! <# Plant Loops>,<Number of Plant Loops>
 #Plant Loops,0
! <Plant Loop>,<Plant Loop Name>,<Loop Type>,<Inlet Node Name>,<Outlet Node Name>,<Branch List>,<Connector List>
! <Plant Loop Connector>,<Connector Type>,<Connector Name>,<Loop Name>,<Loop Type>,<Number of Inlets/Outlets>
! <Plant Loop Connector Branches>,<Connector Node Count>,<Connector Type>,<Connector Name>,<Inlet Branch>,<Outlet Branch>,<Loop Name>,<Loop Type>
! <Plant Loop Connector Nodes>,<Connector Node Count>,<Connector Type>,<Connector Name>,<Inlet Node>,<Outlet Node>,<Loop Name>,<Loop Type>
! <Plant Loop Supply Connection>,<Plant Loop Name>,<Supply Side Outlet Node Name>,<Demand Side Inlet Node Name>
! <Plant Loop Return Connection>,<Plant Loop Name>,<Demand Side Outlet Node Name>,<Supply Side Inlet Node Name>
! ===============================================================
! <# Condenser Loops>,<Number of Condenser Loops>
 #Condenser Loops,0
! <Condenser Loop>,<Condenser Loop Name>,<Loop Type>,<Inlet Node Name>,<Outlet Node Name>,<Branch List>,<Connector List>
! <Condenser Loop Connector>,<Connector Type>,<Connector Name>,<Loop Name>,<Loop Type>,<Number of Inlets/Outlets>
! <Condenser Loop Connector Branches>,<Connector Node Count>,<Connector Type>,<Connector Name>,<Inlet Branch>,<Outlet Branch>,<Loop Name>,<Loop Type>
! <Condenser Loop Connector Nodes>,<Connector Node Count>,<Connector Type>,<Connector Name>,<Inlet Node>,<Outlet Node>,<Loop Name>,<Loop Type>
! <Condenser Loop Supply Connection>,<Condenser Loop Name>,<Supply Side Outlet Node Name>,<Demand Side Inlet Node Name>
! <Condenser Loop Return Connection>,<Condenser Loop Name>,<Demand Side Outlet Node Name>,<Supply Side Inlet Node Name>
! ===============================================================
! <# Controlled Zones>,<Number of Controlled Zones>
 #Controlled Zones,3
! <Controlled Zone>,<Controlled Zone Name>,<Equip List Name>,<Control List Name>,<Zone Node Name>,<# Inlet Nodes>,<# Exhaust Nodes>,<# Return Nodes>
! <Controlled Zone Inlet>,<Inlet Node Count>,<Controlled Zone Name>,<Supply Air Inlet Node Name>,<SD Sys:Cooling/Heating [DD:Cooling] Inlet Node Name>,<DD Sys:Heating Inlet Node Name>
! <Controlled Zone Exhaust>,<Exhaust Node Count>,<Controlled Zone Name>,<Exhaust Air Node Name>
 Controlled Zone,WEST ZONE,ZONE1EQUIPMENT,,ZONE 1 NODE,1,0,1
   Controlled Zone Inlet,1,WEST ZONE,ZONE 1 INLET NODE,ZONE 1 INLET NODE,N/A
   Controlled Zone Return,1,WEST ZONE,ZONE 1 OUTLET NODE
 Controlled Zone,EAST ZONE,ZONE2EQUIPMENT,,ZONE 2 NODE,1,0,1
   Controlled Zone Inlet,1,EAST ZONE,ZONE 2 INLET NODE,ZONE 2 INLET NODE,N/A
   Controlled Zone Return,1,EAST ZONE,ZONE 2 OUTLET NODE
 Controlled Zone,NORTH ZONE,ZONE3EQUIPMENT,,ZONE 3 NODE,1,0,1
   Controlled Zone Inlet,1,NORTH ZONE,ZONE 3 INLET NODE,ZONE 3 INLET NODE,N/A
   Controlled Zone Return,1,NORTH ZONE,ZONE 3 OUTLET NODE
! ===============================================================
! <#Zone Equipment Lists>,<Number of Zone Equipment Lists>
 #Zone Equipment Lists,3
! <Zone Equipment List>,<Zone Equipment List Count>,<Zone Equipment List Name>,<Zone Name>,<Number of Components>
! <Zone Equipment Component>,<Component Count>,<Component Type>,<Component Name>,<Zone Name>,<Heating Priority>,<Cooling Priority>
 Zone Equipment List,1,ZONE1EQUIPMENT,WEST ZONE,1
   Zone Equipment Component,1,AIRTERMINAL:SINGLEDUCT:UNCONTROLLED,ZONE1DIRECTAIR,WEST ZONE,1,1
 Zone Equipment List,2,ZONE2EQUIPMENT,EAST ZONE,1
   Zone Equipment Component,1,AIRTERMINAL:SINGLEDUCT:UNCONTROLLED,ZONE2DIRECTAIR,EAST ZONE,1,1
 Zone Equipment List,3,ZONE3EQUIPMENT,NORTH ZONE,1
   Zone Equipment Component,1,AIRTERMINAL:SINGLEDUCT:UNCONTROLLED,ZONE3DIRECTAIR,NORTH ZONE,1,1
! ===============================================================
! <#AirLoopHVACs>,<Number of AirLoopHVACs>
 #AirLoopHVACs,1
! <AirLoopHVAC>,<Air Loop Name>,<# Return Nodes>,<# Supply Nodes>,<# Zones Cooled>,<# Zones Heated>,<Outdoor Air Used>
! <AirLoop Return Connections>,<Connection Count>,<AirLoopHVAC Name>,<Zn Eqp Return Node #>,<Zn Eqp Return Node Name>,<AirLoop Return Node #>,<Air Loop Return Node Name>
! <AirLoop Supply Connections>,<Connection Count>,<AirLoopHVAC Name>,<Zn Eqp Supply Node #>,<Zn Eqp Supply Node Name>,<AirLoop Supply Node #>,<Air Loop Supply Node Name>
! <Cooled Zone Info>,<Cooled Zone Count>,<Cooled Zone Name>,<Cooled Zone Inlet Node #>,<Cooled Zone Inlet Node Name>,<AirLoopHVAC Name>
! <Heated Zone Info>,<Heated Zone Count>,<Heated Zone Name>,<Heated Zone Inlet Node #>,<Heated Zone Inlet Node Name>,<AirLoopHVAC Name>
! <Outdoor Air Connections>,<OA Inlet Node #>,<OA Return Air Inlet Node Name>,<OA Outlet Node #>,<OA Mixed Air Outlet Node Name>,<AirLoopHVAC Name>
! <AirLoopHVAC Connector>,<Connector Type>,<Connector Name>,<Loop Name>,<Loop Type>,<Number of Inlets/Outlets>
! <AirLoopHVAC Connector Branches>,<Connector Node Count>,<Connector Type>,<Connector Name>,<Inlet Branch>,<Outlet Branch>,<Loop Name>,<Loop Type>
! <AirLoopHVAC Connector Nodes>,<Connector Node Count>,<Connector Type>,<Connector Name>,<Inlet Node>,<Outlet Node>,<Loop Name>,<Loop Type>
 AirLoopHVAC,TYPICAL TERMINAL REHEAT 1,1,1,3,0,Yes
   AirLoop Return Connections,1,TYPICAL TERMINAL REHEAT 1,15,RETURN AIR MIXER OUTLET,8,OUTDOOR AIR MIXER INLET NODE
   AirLoop Supply Connections,1,TYPICAL TERMINAL REHEAT 1,14,ZONE EQUIPMENT INLET NODE,10,AIR LOOP OUTLET NODE
   Cooled Zone Info,1,WEST ZONE,2,ZONE 1 INLET NODE,TYPICAL TERMINAL REHEAT 1
   Cooled Zone Info,2,EAST ZONE,3,ZONE 2 INLET NODE,TYPICAL TERMINAL REHEAT 1
   Cooled Zone Info,3,NORTH ZONE,4,ZONE 3 INLET NODE,TYPICAL TERMINAL REHEAT 1
   Outdoor Air Connections,8,OUTDOOR AIR MIXER INLET NODE,9,MIXED AIR NODE,TYPICAL TERMINAL REHEAT 1
! ===============================================================
! <#Parent Node Connections>,<Number of Parent Node Connections>
 #Parent Node Connections,11
! <Parent Node Connection>,<Node Name>,<Node ObjectType>,<Node ObjectName>,<Node ConnectionType>,<Node FluidStream>
 Parent Node Connection,OUTDOOR AIR MIXER INLET NODE,BRANCH,AIR LOOP MAIN BRANCH,Inlet,1
 Parent Node Connection,MIXED AIR NODE,BRANCH,AIR LOOP MAIN BRANCH,Internal,1
 Parent Node Connection,AIR LOOP OUTLET NODE,BRANCH,AIR LOOP MAIN BRANCH,Outlet,1
 Parent Node Connection,ZONE EQUIPMENT INLET NODE,AIRLOOPHVAC:SUPPLYPATH,HEATPUMPSUPPLYPATH,Inlet,1
 Parent Node Connection,RETURN AIR MIXER OUTLET,AIRLOOPHVAC:RETURNPATH,HEATPUMPRETURNPATH,Outlet,1
 Parent Node Connection,OUTDOOR AIR MIXER INLET NODE,AIRLOOPHVAC,TYPICAL TERMINAL REHEAT 1,Inlet,1
 Parent Node Connection,RETURN AIR MIXER OUTLET,AIRLOOPHVAC,TYPICAL TERMINAL REHEAT 1,Outlet,1
 Parent Node Connection,ZONE EQUIPMENT INLET NODE,AIRLOOPHVAC,TYPICAL TERMINAL REHEAT 1,Inlet,1
 Parent Node Connection,AIR LOOP OUTLET NODE,AIRLOOPHVAC,TYPICAL TERMINAL REHEAT 1,Outlet,1
 Parent Node Connection,MIXED AIR NODE,AIRLOOPHVAC:UNITARYHEATPUMP:AIRTOAIR,DXAC HEAT PUMP 1,Inlet,1
 Parent Node Connection,AIR LOOP OUTLET NODE,AIRLOOPHVAC:UNITARYHEATPUMP:AIRTOAIR,DXAC HEAT PUMP 1,Outlet,1
! ===============================================================
! <#Non-Parent Node Connections>,<Number of Non-Parent Node Connections>
 #Non-Parent Node Connections,37
! <Non-Parent Node Connection>,<Node Name>,<Node ObjectType>,<Node ObjectName>,<Node ConnectionType>,<Node FluidStream>
 Non-Parent Node Connection,ZONE 1 NODE,ZONEHVAC:EQUIPMENTCONNECTIONS,WEST ZONE,ZoneNode,1
 Non-Parent Node Connection,ZONE 1 INLET NODE,ZONEHVAC:EQUIPMENTCONNECTIONS,WEST ZONE,ZoneInlet,1
 Non-Parent Node Connection,ZONE 1 OUTLET NODE,ZONEHVAC:EQUIPMENTCONNECTIONS,WEST ZONE,ZoneReturn,1
 Non-Parent Node Connection,ZONE 2 NODE,ZONEHVAC:EQUIPMENTCONNECTIONS,EAST ZONE,ZoneNode,1
 Non-Parent Node Connection,ZONE 2 INLET NODE,ZONEHVAC:EQUIPMENTCONNECTIONS,EAST ZONE,ZoneInlet,1
 Non-Parent Node Connection,ZONE 2 OUTLET NODE,ZONEHVAC:EQUIPMENTCONNECTIONS,EAST ZONE,ZoneReturn,1
 Non-Parent Node Connection,ZONE 3 NODE,ZONEHVAC:EQUIPMENTCONNECTIONS,NORTH ZONE,ZoneNode,1
 Non-Parent Node Connection,ZONE 3 INLET NODE,ZONEHVAC:EQUIPMENTCONNECTIONS,NORTH ZONE,ZoneInlet,1
 Non-Parent Node Connection,ZONE 3 OUTLET NODE,ZONEHVAC:EQUIPMENTCONNECTIONS,NORTH ZONE,ZoneReturn,1
 Non-Parent Node Connection,OUTSIDE AIR INLET NODE,OUTDOORAIR:NODELIST,OutdoorAir:NodeList,OutdoorAir,1
 Non-Parent Node Connection,ZONE EQUIPMENT INLET NODE,AIRLOOPHVAC:ZONESPLITTER,ZONE SUPPLY AIR SPLITTER,Inlet,1
 Non-Parent Node Connection,ZONE 1 INLET NODE,AIRLOOPHVAC:ZONESPLITTER,ZONE SUPPLY AIR SPLITTER,Outlet,1
 Non-Parent Node Connection,ZONE 2 INLET NODE,AIRLOOPHVAC:ZONESPLITTER,ZONE SUPPLY AIR SPLITTER,Outlet,1
 Non-Parent Node Connection,ZONE 3 INLET NODE,AIRLOOPHVAC:ZONESPLITTER,ZONE SUPPLY AIR SPLITTER,Outlet,1
 Non-Parent Node Connection,ZONE 1 INLET NODE,AIRTERMINAL:SINGLEDUCT:UNCONTROLLED,ZONE1DIRECTAIR,Outlet,1
 Non-Parent Node Connection,ZONE 2 INLET NODE,AIRTERMINAL:SINGLEDUCT:UNCONTROLLED,ZONE2DIRECTAIR,Outlet,1
 Non-Parent Node Connection,ZONE 3 INLET NODE,AIRTERMINAL:SINGLEDUCT:UNCONTROLLED,ZONE3DIRECTAIR,Outlet,1
 Non-Parent Node Connection,RETURN AIR MIXER OUTLET,AIRLOOPHVAC:ZONEMIXER,ZONE RETURN AIR MIXER,Outlet,1
 Non-Parent Node Connection,ZONE 1 OUTLET NODE,AIRLOOPHVAC:ZONEMIXER,ZONE RETURN AIR MIXER,Inlet,1
 Non-Parent Node Connection,ZONE 2 OUTLET NODE,AIRLOOPHVAC:ZONEMIXER,ZONE RETURN AIR MIXER,Inlet,1
 Non-Parent Node Connection,ZONE 3 OUTLET NODE,AIRLOOPHVAC:ZONEMIXER,ZONE RETURN AIR MIXER,Inlet,1
 Non-Parent Node Connection,MIXED AIR NODE,OUTDOORAIR:MIXER,OA MIXING BOX 1,Outlet,1
 Non-Parent Node Connection,OUTSIDE AIR INLET NODE,OUTDOORAIR:MIXER,OA MIXING BOX 1,Inlet,1
 Non-Parent Node Connection,RELIEF AIR OUTLET NODE,OUTDOORAIR:MIXER,OA MIXING BOX 1,ReliefAir,1
 Non-Parent Node Connection,OUTDOOR AIR MIXER INLET NODE,OUTDOORAIR:MIXER,OA MIXING BOX 1,Inlet,1
 Non-Parent Node Connection,MIXED AIR NODE,CONTROLLER:OUTDOORAIR,OA CONTROLLER 1,Sensor,1
 Non-Parent Node Connection,OUTSIDE AIR INLET NODE,CONTROLLER:OUTDOORAIR,OA CONTROLLER 1,Actuator,1
 Non-Parent Node Connection,RELIEF AIR OUTLET NODE,CONTROLLER:OUTDOORAIR,OA CONTROLLER 1,Actuator,1
 Non-Parent Node Connection,OUTDOOR AIR MIXER INLET NODE,CONTROLLER:OUTDOORAIR,OA CONTROLLER 1,Sensor,1
 Non-Parent Node Connection,MIXED AIR NODE,FAN:ONOFF,SUPPLY FAN 1,Inlet,1
 Non-Parent Node Connection,DX COOLING COIL AIR INLET NODE,FAN:ONOFF,SUPPLY FAN 1,Outlet,1
 Non-Parent Node Connection,DX COOLING COIL AIR INLET NODE,COIL:COOLING:DX:SINGLESPEED,HEAT PUMP ACDXCOIL 1,Inlet,1
 Non-Parent Node Connection,HEATING COIL AIR INLET NODE,COIL:COOLING:DX:SINGLESPEED,HEAT PUMP ACDXCOIL 1,Outlet,1
 Non-Parent Node Connection,HEATING COIL AIR INLET NODE,COIL:HEATING:DX:SINGLESPEED,HEAT PUMP DX HEATING COIL 1,Inlet,1
 Non-Parent Node Connection,SUPPHEATING COIL AIR INLET NODE,COIL:HEATING:DX:SINGLESPEED,HEAT PUMP DX HEATING COIL 1,Outlet,1
 Non-Parent Node Connection,SUPPHEATING COIL AIR INLET NODE,COIL:HEATING:FUEL,HEAT PUMP DX SUPP HEATING COIL 1,Inlet,1
 Non-Parent Node Connection,AIR LOOP OUTLET NODE,COIL:HEATING:FUEL,HEAT PUMP DX SUPP HEATING COIL 1,Outlet,1
