  0
SECTION
  2
ENTITIES
999
DXF created from EnergyPlus
999
Program Version,EnergyPlus, Version 9.0.0-2ef880da82, YMD=2018.10.23 18:21
999
Polygon Action,ThickPolyline
999
Color Scheme,Default
999
Text - True North
  0
TEXT
  8
1
  6
Continuous
 62
  3
 10
      -11.95480
 20
        2.04760
 30
        0.10000
 40
 .25
  1
True North
 41
 0.0
  7
MONOTXT
210
0.0
220
0.0
230
1.0
999
Text - Building Title
  0
TEXT
  8
1
  6
Continuous
 62
  3
 10
      -14.95480
 20
       -1.95240
 30
        0.10000
 40
 .4
  1
Building - 5-zoneVAV
 41
 0.0
  7
MONOTXT
210
0.0
220
0.0
230
1.0
999
North Arrow Stem
  0
3DFACE
  8
1
 62
  3
 10
      -10.95480
 20
        2.04760
 30
        0.10000
 11
      -10.95480
 21
        2.04760
 31
        0.00000
 12
      -10.95480
 22
       -0.95240
 32
        0.00000
 13
      -10.95480
 23
       -0.95240
 33
        0.10000
999
North Arrow Head 1
  0
3DFACE
  8
1
 62
  3
 10
      -10.95480
 20
        2.04760
 30
        0.10000
 11
      -10.95480
 21
        2.04760
 31
        0.00000
 12
      -11.45480
 22
        1.18158
 32
        0.00000
 13
      -11.45480
 23
        1.18158
 33
        0.10000
999
North Arrow Head 2
  0
3DFACE
  8
1
 62
  3
 10
      -10.95480
 20
        2.04760
 30
        0.10000
 11
      -10.95480
 21
        2.04760
 31
        0.00000
 12
      -10.45480
 22
        1.18158
 32
        0.00000
 13
      -10.45480
 23
        1.18158
 33
        0.10000
999
North Arrow Side 1
  0
3DFACE
  8
1
 62
  3
 10
      -11.45480
 20
        3.54760
 30
        0.10000
 11
      -11.45480
 21
        3.54760
 31
        0.00000
 12
      -11.45480
 22
        2.54760
 32
        0.00000
 13
      -11.45480
 23
        2.54760
 33
        0.10000
999
North Arrow Side 2
  0
3DFACE
  8
1
 62
  3
 10
      -11.45480
 20
        3.54760
 30
        0.10000
 11
      -11.45480
 21
        3.54760
 31
        0.00000
 12
      -10.45480
 22
        2.54760
 32
        0.00000
 13
      -10.45480
 23
        2.54760
 33
        0.10000
999
North Arrow Side 3
  0
3DFACE
  8
1
 62
  3
 10
      -10.45480
 20
        3.54760
 30
        0.10000
 11
      -10.45480
 21
        3.54760
 31
        0.00000
 12
      -10.45480
 22
        2.54760
 32
        0.00000
 13
      -10.45480
 23
        2.54760
 33
        0.10000
999
Zone Names
999
Zone=1:ZN_1_FLR_1_SEC_1
999
Zone=2:ZN_1_FLR_1_SEC_2
999
Zone=3:ZN_1_FLR_1_SEC_3
999
Zone=4:ZN_1_FLR_1_SEC_4
999
Zone=5:ZN_1_FLR_1_SEC_5
999
ZN_1_FLR_1_SEC_1:ZN_1_FLR_1_SEC_1_WALL_1
  0
3DFACE
  8
ZN_1_FLR_1_SEC_1
 62
 43
 10
        0.00000
 20
        0.00000
 30
        3.80000
 11
        0.00000
 21
        0.00000
 31
        0.00000
 12
       40.00000
 22
        0.00000
 32
        0.00000
 13
       40.00000
 23
        0.00000
 33
        3.80000
999
ZN_1_FLR_1_SEC_1:ZN_1_FLR_1_SEC_1_WALL_1_WINDOW_1
  0
3DFACE
  8
ZN_1_FLR_1_SEC_1
 62
143
 10
        0.05000
 20
        0.00000
 30
        2.62380
 11
        0.05000
 21
        0.00000
 31
        1.10000
 12
       39.95000
 22
        0.00000
 32
        1.10000
 13
       39.95000
 23
        0.00000
 33
        2.62380
999
ZN_1_FLR_1_SEC_1:ZN_1_FLR_1_SEC_1_WALL_2
  0
3DFACE
  8
ZN_1_FLR_1_SEC_1
 62
 43
 10
       40.00000
 20
        0.00000
 30
        3.80000
 11
       40.00000
 21
        0.00000
 31
        0.00000
 12
       35.43000
 22
        4.57000
 32
        0.00000
 13
       35.43000
 23
        4.57000
 33
        3.80000
999
ZN_1_FLR_1_SEC_1:ZN_1_FLR_1_SEC_1_WALL_3
  0
3DFACE
  8
ZN_1_FLR_1_SEC_1
 62
 43
 10
       35.43000
 20
        4.57000
 30
        3.80000
 11
       35.43000
 21
        4.57000
 31
        0.00000
 12
        4.57000
 22
        4.57000
 32
        0.00000
 13
        4.57000
 23
        4.57000
 33
        3.80000
999
ZN_1_FLR_1_SEC_1:ZN_1_FLR_1_SEC_1_WALL_4
  0
3DFACE
  8
ZN_1_FLR_1_SEC_1
 62
 43
 10
        4.57000
 20
        4.57000
 30
        3.80000
 11
        4.57000
 21
        4.57000
 31
        0.00000
 12
        0.00000
 22
        0.00000
 32
        0.00000
 13
        0.00000
 23
        0.00000
 33
        3.80000
999
ZN_1_FLR_1_SEC_1:ZN_1_FLR_1_SEC_1_FLOOR
  0
3DFACE
  8
ZN_1_FLR_1_SEC_1
 62
  8
 10
        4.57000
 20
        4.57000
 30
        0.00000
 11
       35.43000
 21
        4.57000
 31
        0.00000
 12
       40.00000
 22
        0.00000
 32
        0.00000
 13
        0.00000
 23
        0.00000
 33
        0.00000
999
ZN_1_FLR_1_SEC_1:ZN_1_FLR_1_SEC_1_CEILING
  0
3DFACE
  8
ZN_1_FLR_1_SEC_1
 62
 15
 10
        0.00000
 20
        0.00000
 30
        3.80000
 11
       40.00000
 21
        0.00000
 31
        3.80000
 12
       35.43000
 22
        4.57000
 32
        3.80000
 13
        4.57000
 23
        4.57000
 33
        3.80000
999
ZN_1_FLR_1_SEC_1:ZN_1_FLR_1_SEC_1_WALL_1:SHADING_SOUTH_1
  0
3DFACE
  8
ZN_1_FLR_1_SEC_1
 62
 13
 10
        0.05000
 20
       -0.95240
 30
        3.00480
 11
        0.05000
 21
        0.00000
 31
        3.00480
 12
       39.95000
 22
        0.00000
 32
        3.00480
 13
       39.95000
 23
       -0.95240
 33
        3.00480
999
ZN_1_FLR_1_SEC_1:Mir-ZN_1_FLR_1_SEC_1_WALL_1:SHADING_SOUTH_1
  0
3DFACE
  8
ZN_1_FLR_1_SEC_1
 62
 13
 10
       39.95000
 20
       -0.95240
 30
        3.00480
 11
       39.95000
 21
        0.00000
 31
        3.00480
 12
        0.05000
 22
        0.00000
 32
        3.00480
 13
        0.05000
 23
       -0.95240
 33
        3.00480
999
ZN_1_FLR_1_SEC_2:ZN_1_FLR_1_SEC_2_WALL_1
  0
3DFACE
  8
ZN_1_FLR_1_SEC_2
 62
 43
 10
       40.00000
 20
        0.00000
 30
        3.80000
 11
       40.00000
 21
        0.00000
 31
        0.00000
 12
       40.00000
 22
       20.00000
 32
        0.00000
 13
       40.00000
 23
       20.00000
 33
        3.80000
999
ZN_1_FLR_1_SEC_2:ZN_1_FLR_1_SEC_2_WALL_1_WINDOW_1
  0
3DFACE
  8
ZN_1_FLR_1_SEC_2
 62
143
 10
       40.00000
 20
        0.05000
 30
        2.62760
 11
       40.00000
 21
        0.05000
 31
        1.10000
 12
       40.00000
 22
       19.95000
 32
        1.10000
 13
       40.00000
 23
       19.95000
 33
        2.62760
999
ZN_1_FLR_1_SEC_2:ZN_1_FLR_1_SEC_2_WALL_2
  0
3DFACE
  8
ZN_1_FLR_1_SEC_2
 62
 43
 10
       40.00000
 20
       20.00000
 30
        3.80000
 11
       40.00000
 21
       20.00000
 31
        0.00000
 12
       35.43000
 22
       15.43000
 32
        0.00000
 13
       35.43000
 23
       15.43000
 33
        3.80000
999
ZN_1_FLR_1_SEC_2:ZN_1_FLR_1_SEC_2_WALL_3
  0
3DFACE
  8
ZN_1_FLR_1_SEC_2
 62
 43
 10
       35.43000
 20
       15.43000
 30
        3.80000
 11
       35.43000
 21
       15.43000
 31
        0.00000
 12
       35.43000
 22
        4.57000
 32
        0.00000
 13
       35.43000
 23
        4.57000
 33
        3.80000
999
ZN_1_FLR_1_SEC_2:ZN_1_FLR_1_SEC_2_WALL_4
  0
3DFACE
  8
ZN_1_FLR_1_SEC_2
 62
 43
 10
       35.43000
 20
        4.57000
 30
        3.80000
 11
       35.43000
 21
        4.57000
 31
        0.00000
 12
       40.00000
 22
        0.00000
 32
        0.00000
 13
       40.00000
 23
        0.00000
 33
        3.80000
999
ZN_1_FLR_1_SEC_2:ZN_1_FLR_1_SEC_2_FLOOR
  0
3DFACE
  8
ZN_1_FLR_1_SEC_2
 62
  8
 10
       35.43000
 20
        4.57000
 30
        0.00000
 11
       35.43000
 21
       15.43000
 31
        0.00000
 12
       40.00000
 22
       20.00000
 32
        0.00000
 13
       40.00000
 23
        0.00000
 33
        0.00000
999
ZN_1_FLR_1_SEC_2:ZN_1_FLR_1_SEC_2_CEILING
  0
3DFACE
  8
ZN_1_FLR_1_SEC_2
 62
 15
 10
       40.00000
 20
        0.00000
 30
        3.80000
 11
       40.00000
 21
       20.00000
 31
        3.80000
 12
       35.43000
 22
       15.43000
 32
        3.80000
 13
       35.43000
 23
        4.57000
 33
        3.80000
999
ZN_1_FLR_1_SEC_2:ZN_1_FLR_1_SEC_2_WALL_1:SHADING_EAST_1
  0
3DFACE
  8
ZN_1_FLR_1_SEC_2
 62
 13
 10
       40.95480
 20
        0.05000
 30
        3.00950
 11
       40.00000
 21
        0.05000
 31
        3.00950
 12
       40.00000
 22
       19.95000
 32
        3.00950
 13
       40.95480
 23
       19.95000
 33
        3.00950
999
ZN_1_FLR_1_SEC_2:Mir-ZN_1_FLR_1_SEC_2_WALL_1:SHADING_EAST_1
  0
3DFACE
  8
ZN_1_FLR_1_SEC_2
 62
 13
 10
       40.95480
 20
       19.95000
 30
        3.00950
 11
       40.00000
 21
       19.95000
 31
        3.00950
 12
       40.00000
 22
        0.05000
 32
        3.00950
 13
       40.95480
 23
        0.05000
 33
        3.00950
999
ZN_1_FLR_1_SEC_3:ZN_1_FLR_1_SEC_3_WALL_1
  0
3DFACE
  8
ZN_1_FLR_1_SEC_3
 62
 43
 10
        4.57000
 20
       15.43000
 30
        3.80000
 11
        4.57000
 21
       15.43000
 31
        0.00000
 12
       35.43000
 22
       15.43000
 32
        0.00000
 13
       35.43000
 23
       15.43000
 33
        3.80000
999
ZN_1_FLR_1_SEC_3:ZN_1_FLR_1_SEC_3_WALL_2
  0
3DFACE
  8
ZN_1_FLR_1_SEC_3
 62
 43
 10
       35.43000
 20
       15.43000
 30
        3.80000
 11
       35.43000
 21
       15.43000
 31
        0.00000
 12
       40.00000
 22
       20.00000
 32
        0.00000
 13
       40.00000
 23
       20.00000
 33
        3.80000
999
ZN_1_FLR_1_SEC_3:ZN_1_FLR_1_SEC_3_WALL_3
  0
3DFACE
  8
ZN_1_FLR_1_SEC_3
 62
 43
 10
       40.00000
 20
       20.00000
 30
        3.80000
 11
       40.00000
 21
       20.00000
 31
        0.00000
 12
        0.00000
 22
       20.00000
 32
        0.00000
 13
        0.00000
 23
       20.00000
 33
        3.80000
999
ZN_1_FLR_1_SEC_3:ZN_1_FLR_1_SEC_3_WALL_3_WINDOW_1
  0
3DFACE
  8
ZN_1_FLR_1_SEC_3
 62
143
 10
       39.95000
 20
       20.00000
 30
        2.62380
 11
       39.95000
 21
       20.00000
 31
        1.10000
 12
        0.05000
 22
       20.00000
 32
        1.10000
 13
        0.05000
 23
       20.00000
 33
        2.62380
999
ZN_1_FLR_1_SEC_3:ZN_1_FLR_1_SEC_3_WALL_4
  0
3DFACE
  8
ZN_1_FLR_1_SEC_3
 62
 43
 10
        0.00000
 20
       20.00000
 30
        3.80000
 11
        0.00000
 21
       20.00000
 31
        0.00000
 12
        4.57000
 22
       15.43000
 32
        0.00000
 13
        4.57000
 23
       15.43000
 33
        3.80000
999
ZN_1_FLR_1_SEC_3:ZN_1_FLR_1_SEC_3_FLOOR
  0
3DFACE
  8
ZN_1_FLR_1_SEC_3
 62
  8
 10
        0.00000
 20
       20.00000
 30
        0.00000
 11
       40.00000
 21
       20.00000
 31
        0.00000
 12
       35.43000
 22
       15.43000
 32
        0.00000
 13
        4.57000
 23
       15.43000
 33
        0.00000
999
ZN_1_FLR_1_SEC_3:ZN_1_FLR_1_SEC_3_CEILING
  0
3DFACE
  8
ZN_1_FLR_1_SEC_3
 62
 15
 10
        4.57000
 20
       15.43000
 30
        3.80000
 11
       35.43000
 21
       15.43000
 31
        3.80000
 12
       40.00000
 22
       20.00000
 32
        3.80000
 13
        0.00000
 23
       20.00000
 33
        3.80000
999
ZN_1_FLR_1_SEC_4:ZN_1_FLR_1_SEC_4_WALL_1
  0
3DFACE
  8
ZN_1_FLR_1_SEC_4
 62
 43
 10
        0.00000
 20
        0.00000
 30
        3.80000
 11
        0.00000
 21
        0.00000
 31
        0.00000
 12
        4.57000
 22
        4.57000
 32
        0.00000
 13
        4.57000
 23
        4.57000
 33
        3.80000
999
ZN_1_FLR_1_SEC_4:ZN_1_FLR_1_SEC_4_WALL_2
  0
3DFACE
  8
ZN_1_FLR_1_SEC_4
 62
 43
 10
        4.57000
 20
        4.57000
 30
        3.80000
 11
        4.57000
 21
        4.57000
 31
        0.00000
 12
        4.57000
 22
       15.43000
 32
        0.00000
 13
        4.57000
 23
       15.43000
 33
        3.80000
999
ZN_1_FLR_1_SEC_4:ZN_1_FLR_1_SEC_4_WALL_3
  0
3DFACE
  8
ZN_1_FLR_1_SEC_4
 62
 43
 10
        4.57000
 20
       15.43000
 30
        3.80000
 11
        4.57000
 21
       15.43000
 31
        0.00000
 12
        0.00000
 22
       20.00000
 32
        0.00000
 13
        0.00000
 23
       20.00000
 33
        3.80000
999
ZN_1_FLR_1_SEC_4:ZN_1_FLR_1_SEC_4_WALL_4
  0
3DFACE
  8
ZN_1_FLR_1_SEC_4
 62
 43
 10
        0.00000
 20
       20.00000
 30
        3.80000
 11
        0.00000
 21
       20.00000
 31
        0.00000
 12
        0.00000
 22
        0.00000
 32
        0.00000
 13
        0.00000
 23
        0.00000
 33
        3.80000
999
ZN_1_FLR_1_SEC_4:ZN_1_FLR_1_SEC_4_WALL_4_WINDOW_1
  0
3DFACE
  8
ZN_1_FLR_1_SEC_4
 62
143
 10
        0.00000
 20
       19.95000
 30
        2.62760
 11
        0.00000
 21
       19.95000
 31
        1.10000
 12
        0.00000
 22
        0.05000
 32
        1.10000
 13
        0.00000
 23
        0.05000
 33
        2.62760
999
ZN_1_FLR_1_SEC_4:ZN_1_FLR_1_SEC_4_FLOOR
  0
3DFACE
  8
ZN_1_FLR_1_SEC_4
 62
  8
 10
        0.00000
 20
       20.00000
 30
        0.00000
 11
        4.57000
 21
       15.43000
 31
        0.00000
 12
        4.57000
 22
        4.57000
 32
        0.00000
 13
        0.00000
 23
        0.00000
 33
        0.00000
999
ZN_1_FLR_1_SEC_4:ZN_1_FLR_1_SEC_4_CEILING
  0
3DFACE
  8
ZN_1_FLR_1_SEC_4
 62
 15
 10
        0.00000
 20
        0.00000
 30
        3.80000
 11
        4.57000
 21
        4.57000
 31
        3.80000
 12
        4.57000
 22
       15.43000
 32
        3.80000
 13
        0.00000
 23
       20.00000
 33
        3.80000
999
ZN_1_FLR_1_SEC_4:ZN_1_FLR_1_SEC_4_WALL_4:SHADING_WEST_1
  0
3DFACE
  8
ZN_1_FLR_1_SEC_4
 62
 13
 10
       -0.95480
 20
       19.95000
 30
        3.00950
 11
        0.00000
 21
       19.95000
 31
        3.00950
 12
        0.00000
 22
        0.05000
 32
        3.00950
 13
       -0.95480
 23
        0.05000
 33
        3.00950
999
ZN_1_FLR_1_SEC_4:Mir-ZN_1_FLR_1_SEC_4_WALL_4:SHADING_WEST_1
  0
3DFACE
  8
ZN_1_FLR_1_SEC_4
 62
 13
 10
       -0.95480
 20
        0.05000
 30
        3.00950
 11
        0.00000
 21
        0.05000
 31
        3.00950
 12
        0.00000
 22
       19.95000
 32
        3.00950
 13
       -0.95480
 23
       19.95000
 33
        3.00950
999
ZN_1_FLR_1_SEC_5:ZN_1_FLR_1_SEC_5_WALL_1
  0
3DFACE
  8
ZN_1_FLR_1_SEC_5
 62
 43
 10
        4.57000
 20
        4.57000
 30
        3.80000
 11
        4.57000
 21
        4.57000
 31
        0.00000
 12
       35.43000
 22
        4.57000
 32
        0.00000
 13
       35.43000
 23
        4.57000
 33
        3.80000
999
ZN_1_FLR_1_SEC_5:ZN_1_FLR_1_SEC_5_WALL_2
  0
3DFACE
  8
ZN_1_FLR_1_SEC_5
 62
 43
 10
       35.43000
 20
        4.57000
 30
        3.80000
 11
       35.43000
 21
        4.57000
 31
        0.00000
 12
       35.43000
 22
       15.43000
 32
        0.00000
 13
       35.43000
 23
       15.43000
 33
        3.80000
999
ZN_1_FLR_1_SEC_5:ZN_1_FLR_1_SEC_5_WALL_3
  0
3DFACE
  8
ZN_1_FLR_1_SEC_5
 62
 43
 10
       35.43000
 20
       15.43000
 30
        3.80000
 11
       35.43000
 21
       15.43000
 31
        0.00000
 12
        4.57000
 22
       15.43000
 32
        0.00000
 13
        4.57000
 23
       15.43000
 33
        3.80000
999
ZN_1_FLR_1_SEC_5:ZN_1_FLR_1_SEC_5_WALL_4
  0
3DFACE
  8
ZN_1_FLR_1_SEC_5
 62
 43
 10
        4.57000
 20
       15.43000
 30
        3.80000
 11
        4.57000
 21
       15.43000
 31
        0.00000
 12
        4.57000
 22
        4.57000
 32
        0.00000
 13
        4.57000
 23
        4.57000
 33
        3.80000
999
ZN_1_FLR_1_SEC_5:ZN_1_FLR_1_SEC_5_FLOOR
  0
3DFACE
  8
ZN_1_FLR_1_SEC_5
 62
  8
 10
        4.57000
 20
       15.43000
 30
        0.00000
 11
       35.43000
 21
       15.43000
 31
        0.00000
 12
       35.43000
 22
        4.57000
 32
        0.00000
 13
        4.57000
 23
        4.57000
 33
        0.00000
999
ZN_1_FLR_1_SEC_5:ZN_1_FLR_1_SEC_5_CEILING
  0
3DFACE
  8
ZN_1_FLR_1_SEC_5
 62
 15
 10
        4.57000
 20
        4.57000
 30
        3.80000
 11
       35.43000
 21
        4.57000
 31
        3.80000
 12
       35.43000
 22
       15.43000
 32
        3.80000
 13
        4.57000
 23
       15.43000
 33
        3.80000
999
ZN_1_FLR_1_SEC_5:ZN_1_FLR_1_SEC_5_CEILING_SKYLIGHT_1
  0
3DFACE
  8
ZN_1_FLR_1_SEC_5
 62
143
 10
        7.81790
 20
        6.67540
 30
        3.80000
 11
        9.03710
 21
        6.67540
 31
        3.80000
 12
        9.03710
 22
        7.89460
 32
        3.80000
 13
        7.81790
 23
        7.89460
 33
        3.80000
999
ZN_1_FLR_1_SEC_5:ZN_1_FLR_1_SEC_5_CEILING_SKYLIGHT_2
  0
3DFACE
  8
ZN_1_FLR_1_SEC_5
 62
143
 10
       15.53290
 20
        6.67540
 30
        3.80000
 11
       16.75210
 21
        6.67540
 31
        3.80000
 12
       16.75210
 22
        7.89460
 32
        3.80000
 13
       15.53290
 23
        7.89460
 33
        3.80000
999
ZN_1_FLR_1_SEC_5:ZN_1_FLR_1_SEC_5_CEILING_SKYLIGHT_3
  0
3DFACE
  8
ZN_1_FLR_1_SEC_5
 62
143
 10
       23.24790
 20
        6.67540
 30
        3.80000
 11
       24.46710
 21
        6.67540
 31
        3.80000
 12
       24.46710
 22
        7.89460
 32
        3.80000
 13
       23.24790
 23
        7.89460
 33
        3.80000
999
ZN_1_FLR_1_SEC_5:ZN_1_FLR_1_SEC_5_CEILING_SKYLIGHT_4
  0
3DFACE
  8
ZN_1_FLR_1_SEC_5
 62
143
 10
       30.96290
 20
        6.67540
 30
        3.80000
 11
       32.18210
 21
        6.67540
 31
        3.80000
 12
       32.18210
 22
        7.89460
 32
        3.80000
 13
       30.96290
 23
        7.89460
 33
        3.80000
999
ZN_1_FLR_1_SEC_5:ZN_1_FLR_1_SEC_5_CEILING_SKYLIGHT_5
  0
3DFACE
  8
ZN_1_FLR_1_SEC_5
 62
143
 10
        7.81790
 20
       12.10540
 30
        3.80000
 11
        9.03710
 21
       12.10540
 31
        3.80000
 12
        9.03710
 22
       13.32460
 32
        3.80000
 13
        7.81790
 23
       13.32460
 33
        3.80000
999
ZN_1_FLR_1_SEC_5:ZN_1_FLR_1_SEC_5_CEILING_SKYLIGHT_6
  0
3DFACE
  8
ZN_1_FLR_1_SEC_5
 62
143
 10
       15.53290
 20
       12.10540
 30
        3.80000
 11
       16.75210
 21
       12.10540
 31
        3.80000
 12
       16.75210
 22
       13.32460
 32
        3.80000
 13
       15.53290
 23
       13.32460
 33
        3.80000
999
ZN_1_FLR_1_SEC_5:ZN_1_FLR_1_SEC_5_CEILING_SKYLIGHT_7
  0
3DFACE
  8
ZN_1_FLR_1_SEC_5
 62
143
 10
       23.24790
 20
       12.10540
 30
        3.80000
 11
       24.46710
 21
       12.10540
 31
        3.80000
 12
       24.46710
 22
       13.32460
 32
        3.80000
 13
       23.24790
 23
       13.32460
 33
        3.80000
999
ZN_1_FLR_1_SEC_5:ZN_1_FLR_1_SEC_5_CEILING_SKYLIGHT_8
  0
3DFACE
  8
ZN_1_FLR_1_SEC_5
 62
143
 10
       30.96290
 20
       12.10540
 30
        3.80000
 11
       32.18210
 21
       12.10540
 31
        3.80000
 12
       32.18210
 22
       13.32460
 32
        3.80000
 13
       30.96290
 23
       13.32460
 33
        3.80000
999
ZN_1_FLR_1_SEC_1:DayRefPt:1
  0
CIRCLE
  8
ZN_1_FLR_1_SEC_1
 62
 10
 10
       20.00000
 20
        2.28500
 30
        0.76200
 40
        0.20000
999
ZN_1_FLR_1_SEC_2:DayRefPt:1
  0
CIRCLE
  8
ZN_1_FLR_1_SEC_2
 62
 10
 10
       37.71500
 20
       10.00000
 30
        0.76200
 40
        0.20000
999
ZN_1_FLR_1_SEC_3:DayRefPt:1
  0
CIRCLE
  8
ZN_1_FLR_1_SEC_3
 62
 10
 10
       20.00000
 20
       17.71500
 30
        0.76200
 40
        0.20000
999
ZN_1_FLR_1_SEC_4:DayRefPt:1
  0
CIRCLE
  8
ZN_1_FLR_1_SEC_4
 62
 10
 10
        2.28500
 20
       10.00000
 30
        0.76200
 40
        0.20000
999
ZN_1_FLR_1_SEC_5:DayRefPt:1
  0
CIRCLE
  8
ZN_1_FLR_1_SEC_5
 62
 10
 10
       20.00000
 20
       10.00000
 30
        0.76200
 40
        0.20000
999
ZN_1_FLR_1_SEC_1:DEDayRefPt:1
  0
CIRCLE
  8
ZN_1_FLR_1_SEC_1
 62
 10
 10
       20.00000
 20
        2.28500
 30
        0.76200
 40
        0.20000
999
ZN_1_FLR_1_SEC_2:DEDayRefPt:1
  0
CIRCLE
  8
ZN_1_FLR_1_SEC_2
 62
 10
 10
       37.71500
 20
       10.00000
 30
        0.76200
 40
        0.20000
999
ZN_1_FLR_1_SEC_3:DEDayRefPt:1
  0
CIRCLE
  8
ZN_1_FLR_1_SEC_3
 62
 10
 10
       20.00000
 20
       17.71500
 30
        0.76200
 40
        0.20000
999
ZN_1_FLR_1_SEC_4:DEDayRefPt:1
  0
CIRCLE
  8
ZN_1_FLR_1_SEC_4
 62
 10
 10
        2.28500
 20
       10.00000
 30
        0.76200
 40
        0.20000
999
ZN_1_FLR_1_SEC_5:DEDayRefPt:1
  0
CIRCLE
  8
ZN_1_FLR_1_SEC_5
 62
 10
 10
       20.00000
 20
       10.00000
 30
        0.76200
 40
        0.20000
  0
ENDSEC
  0
EOF
