Program Version,EnergyPlus, Version 9.0.0-2ef880da82, YMD=2018.10.23 18:21
! This file shows details about the branches, nodes, and other
! elements of the flow connections.
! This file is intended for use in "debugging" potential problems
! that may also be detected by the program, but may be more easily
! identified by "eye".
! This file is also intended to support software which draws a
! schematic diagram of the HVAC system.
! ===============================================================
! #Nodes,<Number of Unique Nodes>
 #Nodes,138
! <Node>,<NodeNumber>,<Node Name>,<Node Fluid Type>,<# Times Node Referenced After Definition>
 Node,1,ZN_1_FLR_1_SEC_1 VAV BOX OUTLET NODE,Air,4
 Node,2,ZN_1_FLR_1_SEC_1 EXHAUST NODE,Air,3
 Node,3,ZN_1_FLR_1_SEC_2 VAV BOX OUTLET NODE,Air,4
 Node,4,ZN_1_FLR_1_SEC_3 VAV BOX OUTLET NODE,Air,4
 Node,5,ZN_1_FLR_1_SEC_4 VAV BOX OUTLET NODE,Air,4
 Node,6,ZN_1_FLR_1_SEC_5 VAV BOX OUTLET NODE,Air,4
 Node,7,VAV WITH REHEAT_OAINLET NODE,Air,3
 Node,8,VAV WITH REHEAT SUPPLY EQUIPMENT INLET NODE,Air,3
 Node,9,VAV WITH REHEAT_OA-VAV WITH REHEAT_COOLCNODE,Air,5
 Node,10,VAV WITH REHEAT_COOLC-VAV WITH REHEAT_HEATCNODE,Air,5
 Node,11,VAV WITH REHEAT_HEATC-VAV WITH REHEAT FANNODE,Air,8
 Node,12,VAV WITH REHEAT SUPPLY EQUIPMENT OUTLET NODE,Air,9
 Node,13,SHWSYS1 SUPPLY INLET NODE,Water,2
 Node,14,SHWSYS1 PUMP-SHWSYS1 WATER HEATERNODEVIACONNECTOR,Water,1
 Node,15,SHWSYS1 PUMP-SHWSYS1 WATER HEATERNODE,Water,1
 Node,16,SHWSYS1 SUPPLY EQUIPMENT OUTLET NODE,Water,1
 Node,17,SHWSYS1 SUPPLY EQUIP BYPASS INLET NODE,Water,1
 Node,18,SHWSYS1 SUPPLY EQUIP BYPASS OUTLET NODE,Water,1
 Node,19,SHWSYS1 SUPPLY MIXER-SHWSYS1 SUPPLY OUTLET PIPE,Water,1
 Node,20,SHWSYS1 SUPPLY OUTLET NODE,Water,4
 Node,21,SHWSYS1 DEMAND INLET NODE,Water,2
 Node,22,SHWSYS1 DEMAND INLET PIPE-SHWSYS1 DEMAND MIXER,Water,1
 Node,23,ZN_1_FLR_1_SEC_1SHW_DEFAULT WATER INLET NODE,Water,1
 Node,24,ZN_1_FLR_1_SEC_1SHW_DEFAULT WATER OUTLET NODE,Water,1
 Node,25,ZN_1_FLR_1_SEC_2SHW_DEFAULT WATER INLET NODE,Water,1
 Node,26,ZN_1_FLR_1_SEC_2SHW_DEFAULT WATER OUTLET NODE,Water,1
 Node,27,ZN_1_FLR_1_SEC_3SHW_DEFAULT WATER INLET NODE,Water,1
 Node,28,ZN_1_FLR_1_SEC_3SHW_DEFAULT WATER OUTLET NODE,Water,1
 Node,29,ZN_1_FLR_1_SEC_4SHW_DEFAULT WATER INLET NODE,Water,1
 Node,30,ZN_1_FLR_1_SEC_4SHW_DEFAULT WATER OUTLET NODE,Water,1
 Node,31,ZN_1_FLR_1_SEC_5SHW_DEFAULT WATER INLET NODE,Water,1
 Node,32,ZN_1_FLR_1_SEC_5SHW_DEFAULT WATER OUTLET NODE,Water,1
 Node,33,SHWSYS1 DEMAND BYPASS PIPE INLET NODE,Water,1
 Node,34,SHWSYS1 DEMAND BYPASS PIPE OUTLET NODE,Water,1
 Node,35,SHWSYS1 DEMAND MIXER-SHWSYS1 DEMAND OUTLET PIPE,Water,1
 Node,36,SHWSYS1 DEMAND OUTLET NODE,Water,2
 Node,37,HEATSYS1 SUPPLY INLET NODE,Water,2
 Node,38,HEATSYS1 PUMP-HEATSYS1 BOILERNODEVIACONNECTOR,Water,1
 Node,39,HEATSYS1 PUMP-HEATSYS1 BOILERNODE,Water,1
 Node,40,HEATSYS1 SUPPLY EQUIPMENT OUTLET NODE,Water,2
 Node,41,HEATSYS1 SUPPLY EQUIP BYPASS INLET NODE,Water,1
 Node,42,HEATSYS1 SUPPLY EQUIP BYPASS OUTLET NODE,Water,1
 Node,43,HEATSYS1 SUPPLY MIXER-HEATSYS1 SUPPLY OUTLET PIPE,Water,1
 Node,44,HEATSYS1 SUPPLY OUTLET NODE,Water,4
 Node,45,HEATSYS1 DEMAND INLET NODE,Water,2
 Node,46,HEATSYS1 DEMAND INLET PIPE-HEATSYS1 DEMAND MIXER,Water,1
 Node,47,ZN_1_FLR_1_SEC_1 VAV BOX REHEAT COILDEMAND INLET NODE,Water,1
 Node,48,ZN_1_FLR_1_SEC_1 VAV BOX REHEAT COILDEMAND OUTLET NODE,Water,1
 Node,49,ZN_1_FLR_1_SEC_2 VAV BOX REHEAT COILDEMAND INLET NODE,Water,1
 Node,50,ZN_1_FLR_1_SEC_2 VAV BOX REHEAT COILDEMAND OUTLET NODE,Water,1
 Node,51,ZN_1_FLR_1_SEC_3 VAV BOX REHEAT COILDEMAND INLET NODE,Water,1
 Node,52,ZN_1_FLR_1_SEC_3 VAV BOX REHEAT COILDEMAND OUTLET NODE,Water,1
 Node,53,ZN_1_FLR_1_SEC_4 VAV BOX REHEAT COILDEMAND INLET NODE,Water,1
 Node,54,ZN_1_FLR_1_SEC_4 VAV BOX REHEAT COILDEMAND OUTLET NODE,Water,1
 Node,55,ZN_1_FLR_1_SEC_5 VAV BOX REHEAT COILDEMAND INLET NODE,Water,1
 Node,56,ZN_1_FLR_1_SEC_5 VAV BOX REHEAT COILDEMAND OUTLET NODE,Water,1
 Node,57,VAV WITH REHEAT_HEATCDEMAND INLET NODE,Water,2
 Node,58,VAV WITH REHEAT_HEATCDEMAND OUTLET NODE,Water,1
 Node,59,HEATSYS1 DEMAND BYPASS PIPE INLET NODE,Water,1
 Node,60,HEATSYS1 DEMAND BYPASS PIPE OUTLET NODE,Water,1
 Node,61,HEATSYS1 DEMAND MIXER-HEATSYS1 DEMAND OUTLET PIPE,Water,1
 Node,62,HEATSYS1 DEMAND OUTLET NODE,Water,2
 Node,63,COOLSYSPRIMARY SUPPLY INLET NODE,Water,2
 Node,64,COOLSYSPRIMARY PUMP-COOLSYSPRIMARY CHILLERNODEVIACONNECTOR,Water,1
 Node,65,COOLSYSPRIMARY PUMP-COOLSYSPRIMARY CHILLERNODE,Water,1
 Node,66,COOLSYSPRIMARY SUPPLY EQUIPMENT OUTLET NODE,Water,1
 Node,67,COOLSYSPRIMARY SUPPLY EQUIP BYPASS INLET NODE,Water,1
 Node,68,COOLSYSPRIMARY SUPPLY EQUIP BYPASS OUTLET NODE,Water,1
 Node,69,COOLSYSPRIMARY SUPPLY MIXER-COOLSYSPRIMARY SUPPLY OUTLET PIPE,Water,1
 Node,70,COOLSYSPRIMARY SUPPLY OUTLET NODE,Water,4
 Node,71,COOLSYSPRIMARY DEMAND INLET NODE,Water,2
 Node,72,COOLSYSPRIMARY DEMAND INLET PIPE-COOLSYSPRIMARY DEMAND MIXER,Water,1
 Node,73,CW TANK CHARGE INLET NODE,Water,1
 Node,74,CW TANK CHARGE OUTLET NODE,Water,1
 Node,75,COOLSYSPRIMARY DEMAND BYPASS PIPE INLET NODE,Water,1
 Node,76,COOLSYSPRIMARY DEMAND BYPASS PIPE OUTLET NODE,Water,1
 Node,77,COOLSYSPRIMARY DEMAND MIXER-COOLSYSPRIMARY DEMAND OUTLET PIPE,Water,1
 Node,78,COOLSYSPRIMARY DEMAND OUTLET NODE,Water,2
 Node,79,COOLSYSSECONDARY SUPPLY INLET NODE,Water,2
 Node,80,COOLSYSSECONDARY PUMP-COOLSYSSECONDARY CHILLERNODEVIACONNECTOR,Water,1
 Node,81,COOLSYSSECONDARY PUMP-COOLSYSSECONDARY CHILLERNODE,Water,1
 Node,82,COOLSYSSECONDARY SUPPLY EQUIPMENT OUTLET NODE,Water,1
 Node,83,CW TANK DISCHARGE INLET NODE,Water,1
 Node,84,CW TANK DISCHARGE OUTLET NODE,Water,1
 Node,85,COOLSYSSECONDARY SUPPLY EQUIP BYPASS INLET NODE,Water,1
 Node,86,COOLSYSSECONDARY SUPPLY EQUIP BYPASS OUTLET NODE,Water,1
 Node,87,COOLSYSSECONDARY SUPPLY MIXER-COOLSYSSECONDARY SUPPLY OUTLET PIPE,Water,1
 Node,88,COOLSYSSECONDARY SUPPLY OUTLET NODE,Water,4
 Node,89,COOLSYSSECONDARY DEMAND INLET NODE,Water,2
 Node,90,COOLSYSSECONDARY DEMAND INLET PIPE-COOLSYSSECONDARY DEMAND MIXER,Water,1
 Node,91,VAV WITH REHEAT_COOLCDEMAND INLET NODE,Water,2
 Node,92,VAV WITH REHEAT_COOLCDEMAND OUTLET NODE,Water,1
 Node,93,COOLSYSSECONDARY DEMAND BYPASS PIPE INLET NODE,Water,1
 Node,94,COOLSYSSECONDARY DEMAND BYPASS PIPE OUTLET NODE,Water,1
 Node,95,COOLSYSSECONDARY DEMAND MIXER-COOLSYSSECONDARY DEMAND OUTLET PIPE,Water,1
 Node,96,COOLSYSSECONDARY DEMAND OUTLET NODE,Water,2
 Node,97,TOWERWATERSYS SUPPLY INLET NODE,Water,2
 Node,98,TOWERWATERSYS PUMP-TOWERWATERSYS COOLTOWERNODEVIACONNECTOR,Water,1
 Node,99,TOWERWATERSYS PUMP-TOWERWATERSYS COOLTOWERNODE,Water,1
 Node,100,TOWERWATERSYS SUPPLY EQUIPMENT OUTLET NODE,Water,1
 Node,101,TOWERWATERSYS SUPPLY EQUIP BYPASS INLET NODE,Water,1
 Node,102,TOWERWATERSYS SUPPLY EQUIP BYPASS OUTLET NODE,Water,1
 Node,103,TOWERWATERSYS SUPPLY MIXER-TOWERWATERSYS SUPPLY OUTLET PIPE,Water,1
 Node,104,TOWERWATERSYS SUPPLY OUTLET NODE,Water,4
 Node,105,TOWERWATERSYS DEMAND INLET NODE,Water,2
 Node,106,TOWERWATERSYS DEMAND INLET PIPE-TOWERWATERSYS DEMAND MIXER,Water,1
 Node,107,COOLSYSSECONDARY CHILLER WATER INLET NODE,Water,1
 Node,108,COOLSYSSECONDARY CHILLER WATER OUTLET NODE,Water,1
 Node,109,COOLSYSPRIMARY CHILLER WATER INLET NODE,Water,1
 Node,110,COOLSYSPRIMARY CHILLER WATER OUTLET NODE,Water,1
 Node,111,TOWERWATERSYS DEMAND BYPASS PIPE INLET NODE,Water,1
 Node,112,TOWERWATERSYS DEMAND BYPASS PIPE OUTLET NODE,Water,1
 Node,113,TOWERWATERSYS DEMAND MIXER-TOWERWATERSYS DEMAND OUTLET PIPE,Water,1
 Node,114,TOWERWATERSYS DEMAND OUTLET NODE,Water,2
 Node,115,ZN_1_FLR_1_SEC_1 AIR NODE,Air,0
 Node,116,ZN_1_FLR_1_SEC_1 RETURN AIR NODE,Air,1
 Node,117,ZN_1_FLR_1_SEC_2 AIR NODE,Air,0
 Node,118,ZN_1_FLR_1_SEC_2 RETURN AIR NODE,Air,1
 Node,119,ZN_1_FLR_1_SEC_3 AIR NODE,Air,0
 Node,120,ZN_1_FLR_1_SEC_3 RETURN AIR NODE,Air,1
 Node,121,ZN_1_FLR_1_SEC_4 AIR NODE,Air,0
 Node,122,ZN_1_FLR_1_SEC_4 RETURN AIR NODE,Air,1
 Node,123,ZN_1_FLR_1_SEC_5 AIR NODE,Air,0
 Node,124,ZN_1_FLR_1_SEC_5 RETURN AIR NODE,Air,1
 Node,125,VAV WITH REHEAT ZONE EQUIPMENT INLET NODE,Air,2
 Node,126,VAV WITH REHEAT ZONE EQUIPMENT OUTLET NODE,Air,2
 Node,127,ZN_1_FLR_1_SEC_1 VAV BOX INLET NODE,Air,2
 Node,128,ZN_1_FLR_1_SEC_2 VAV BOX INLET NODE,Air,1
 Node,129,ZN_1_FLR_1_SEC_3 VAV BOX INLET NODE,Air,1
 Node,130,ZN_1_FLR_1_SEC_4 VAV BOX INLET NODE,Air,1
 Node,131,ZN_1_FLR_1_SEC_5 VAV BOX INLET NODE,Air,1
 Node,132,ZN_1_FLR_1_SEC_1 VAV BOX DAMPER NODE,Air,2
 Node,133,ZN_1_FLR_1_SEC_2 VAV BOX DAMPER NODE,Air,1
 Node,134,ZN_1_FLR_1_SEC_3 VAV BOX DAMPER NODE,Air,1
 Node,135,ZN_1_FLR_1_SEC_4 VAV BOX DAMPER NODE,Air,1
 Node,136,ZN_1_FLR_1_SEC_5 VAV BOX DAMPER NODE,Air,1
 Node,137,ZONE 1 PIU MIXER AIR OUTLET NODE,Air,1
 Node,138,VAV WITH REHEAT_OARELIEF NODE,Air,1
! ===============================================================
! Suspicious nodes have 0 references.  It is normal for some nodes, however.
! Listing nodes with 0 references (culled from previous list):
! <Suspicious Node>,<NodeNumber>,<Node Name>,<Node Fluid Type>,<# Times Node Referenced After Definition>
 Suspicious Node,115,ZN_1_FLR_1_SEC_1 AIR NODE,Air,0
 Suspicious Node,117,ZN_1_FLR_1_SEC_2 AIR NODE,Air,0
 Suspicious Node,119,ZN_1_FLR_1_SEC_3 AIR NODE,Air,0
 Suspicious Node,121,ZN_1_FLR_1_SEC_4 AIR NODE,Air,0
 Suspicious Node,123,ZN_1_FLR_1_SEC_5 AIR NODE,Air,0
! ===============================================================
! <#Branch Lists>,<Number of Branch Lists>
 #Branch Lists,11
! <Branch List>,<Branch List Count>,<Branch List Name>,<Loop Name>,<Loop Type>,<Number of Branches>
! <Branch>,<Branch Count>,<Branch Name>,<Loop Name>,<Loop Type>,<Branch Inlet Node Name>,<Branch Outlet Node Name>
 Branch List,1,VAV WITH REHEAT AIR LOOP BRANCHES,VAV WITH REHEAT,Air,1
   Branch,1,VAV WITH REHEAT AIR LOOP MAIN BRANCH,VAV WITH REHEAT,Air,VAV WITH REHEAT SUPPLY EQUIPMENT INLET NODE,VAV WITH REHEAT SUPPLY EQUIPMENT OUTLET NODE
 Branch List,2,SHWSYS1 SUPPLY BRANCHES,SHWSYS1,Plant Supply,4
   Branch,1,SHWSYS1 SUPPLY INLET BRANCH,SHWSYS1,Plant Supply,SHWSYS1 SUPPLY INLET NODE,SHWSYS1 PUMP-SHWSYS1 WATER HEATERNODEVIACONNECTOR
   Branch,2,SHWSYS1 SUPPLY EQUIPMENT BRANCH,SHWSYS1,Plant Supply,SHWSYS1 PUMP-SHWSYS1 WATER HEATERNODE,SHWSYS1 SUPPLY EQUIPMENT OUTLET NODE
   Branch,3,SHWSYS1 SUPPLY EQUIPMENT BYPASS BRANCH,SHWSYS1,Plant Supply,SHWSYS1 SUPPLY EQUIP BYPASS INLET NODE,SHWSYS1 SUPPLY EQUIP BYPASS OUTLET NODE
   Branch,4,SHWSYS1 SUPPLY OUTLET BRANCH,SHWSYS1,Plant Supply,SHWSYS1 SUPPLY MIXER-SHWSYS1 SUPPLY OUTLET PIPE,SHWSYS1 SUPPLY OUTLET NODE
 Branch List,3,SHWSYS1 DEMAND BRANCHES,SHWSYS1,Plant Demand,8
   Branch,1,SHWSYS1 DEMAND INLET BRANCH,SHWSYS1,Plant Demand,SHWSYS1 DEMAND INLET NODE,SHWSYS1 DEMAND INLET PIPE-SHWSYS1 DEMAND MIXER
   Branch,2,SHWSYS1 DEMAND LOAD BRANCH 1,SHWSYS1,Plant Demand,ZN_1_FLR_1_SEC_1SHW_DEFAULT WATER INLET NODE,ZN_1_FLR_1_SEC_1SHW_DEFAULT WATER OUTLET NODE
   Branch,3,SHWSYS1 DEMAND LOAD BRANCH 2,SHWSYS1,Plant Demand,ZN_1_FLR_1_SEC_2SHW_DEFAULT WATER INLET NODE,ZN_1_FLR_1_SEC_2SHW_DEFAULT WATER OUTLET NODE
   Branch,4,SHWSYS1 DEMAND LOAD BRANCH 3,SHWSYS1,Plant Demand,ZN_1_FLR_1_SEC_3SHW_DEFAULT WATER INLET NODE,ZN_1_FLR_1_SEC_3SHW_DEFAULT WATER OUTLET NODE
   Branch,5,SHWSYS1 DEMAND LOAD BRANCH 4,SHWSYS1,Plant Demand,ZN_1_FLR_1_SEC_4SHW_DEFAULT WATER INLET NODE,ZN_1_FLR_1_SEC_4SHW_DEFAULT WATER OUTLET NODE
   Branch,6,SHWSYS1 DEMAND LOAD BRANCH 5,SHWSYS1,Plant Demand,ZN_1_FLR_1_SEC_5SHW_DEFAULT WATER INLET NODE,ZN_1_FLR_1_SEC_5SHW_DEFAULT WATER OUTLET NODE
   Branch,7,SHWSYS1 DEMAND BYPASS BRANCH,SHWSYS1,Plant Demand,SHWSYS1 DEMAND BYPASS PIPE INLET NODE,SHWSYS1 DEMAND BYPASS PIPE OUTLET NODE
   Branch,8,SHWSYS1 DEMAND OUTLET BRANCH,SHWSYS1,Plant Demand,SHWSYS1 DEMAND MIXER-SHWSYS1 DEMAND OUTLET PIPE,SHWSYS1 DEMAND OUTLET NODE
 Branch List,4,HEATSYS1 SUPPLY BRANCHES,HEATSYS1,Plant Supply,4
   Branch,1,HEATSYS1 SUPPLY INLET BRANCH,HEATSYS1,Plant Supply,HEATSYS1 SUPPLY INLET NODE,HEATSYS1 PUMP-HEATSYS1 BOILERNODEVIACONNECTOR
   Branch,2,HEATSYS1 SUPPLY EQUIPMENT BRANCH,HEATSYS1,Plant Supply,HEATSYS1 PUMP-HEATSYS1 BOILERNODE,HEATSYS1 SUPPLY EQUIPMENT OUTLET NODE
   Branch,3,HEATSYS1 SUPPLY EQUIPMENT BYPASS BRANCH,HEATSYS1,Plant Supply,HEATSYS1 SUPPLY EQUIP BYPASS INLET NODE,HEATSYS1 SUPPLY EQUIP BYPASS OUTLET NODE
   Branch,4,HEATSYS1 SUPPLY OUTLET BRANCH,HEATSYS1,Plant Supply,HEATSYS1 SUPPLY MIXER-HEATSYS1 SUPPLY OUTLET PIPE,HEATSYS1 SUPPLY OUTLET NODE
 Branch List,5,HEATSYS1 DEMAND BRANCHES,HEATSYS1,Plant Demand,9
   Branch,1,HEATSYS1 DEMAND INLET BRANCH,HEATSYS1,Plant Demand,HEATSYS1 DEMAND INLET NODE,HEATSYS1 DEMAND INLET PIPE-HEATSYS1 DEMAND MIXER
   Branch,2,HEATSYS1 DEMAND LOAD BRANCH 1,HEATSYS1,Plant Demand,ZN_1_FLR_1_SEC_1 VAV BOX REHEAT COILDEMAND INLET NODE,ZN_1_FLR_1_SEC_1 VAV BOX REHEAT COILDEMAND OUTLET NODE
   Branch,3,HEATSYS1 DEMAND LOAD BRANCH 2,HEATSYS1,Plant Demand,ZN_1_FLR_1_SEC_2 VAV BOX REHEAT COILDEMAND INLET NODE,ZN_1_FLR_1_SEC_2 VAV BOX REHEAT COILDEMAND OUTLET NODE
   Branch,4,HEATSYS1 DEMAND LOAD BRANCH 3,HEATSYS1,Plant Demand,ZN_1_FLR_1_SEC_3 VAV BOX REHEAT COILDEMAND INLET NODE,ZN_1_FLR_1_SEC_3 VAV BOX REHEAT COILDEMAND OUTLET NODE
   Branch,5,HEATSYS1 DEMAND LOAD BRANCH 4,HEATSYS1,Plant Demand,ZN_1_FLR_1_SEC_4 VAV BOX REHEAT COILDEMAND INLET NODE,ZN_1_FLR_1_SEC_4 VAV BOX REHEAT COILDEMAND OUTLET NODE
   Branch,6,HEATSYS1 DEMAND LOAD BRANCH 5,HEATSYS1,Plant Demand,ZN_1_FLR_1_SEC_5 VAV BOX REHEAT COILDEMAND INLET NODE,ZN_1_FLR_1_SEC_5 VAV BOX REHEAT COILDEMAND OUTLET NODE
   Branch,7,HEATSYS1 DEMAND LOAD BRANCH 6,HEATSYS1,Plant Demand,VAV WITH REHEAT_HEATCDEMAND INLET NODE,VAV WITH REHEAT_HEATCDEMAND OUTLET NODE
   Branch,8,HEATSYS1 DEMAND BYPASS BRANCH,HEATSYS1,Plant Demand,HEATSYS1 DEMAND BYPASS PIPE INLET NODE,HEATSYS1 DEMAND BYPASS PIPE OUTLET NODE
   Branch,9,HEATSYS1 DEMAND OUTLET BRANCH,HEATSYS1,Plant Demand,HEATSYS1 DEMAND MIXER-HEATSYS1 DEMAND OUTLET PIPE,HEATSYS1 DEMAND OUTLET NODE
 Branch List,6,COOLSYSPRIMARY SUPPLY BRANCHES,COOLSYSPRIMARY,Plant Supply,4
   Branch,1,COOLSYSPRIMARY SUPPLY INLET BRANCH,COOLSYSPRIMARY,Plant Supply,COOLSYSPRIMARY SUPPLY INLET NODE,COOLSYSPRIMARY PUMP-COOLSYSPRIMARY CHILLERNODEVIACONNECTOR
   Branch,2,COOLSYSPRIMARY SUPPLY EQUIPMENT BRANCH,COOLSYSPRIMARY,Plant Supply,COOLSYSPRIMARY PUMP-COOLSYSPRIMARY CHILLERNODE,COOLSYSPRIMARY SUPPLY EQUIPMENT OUTLET NODE
   Branch,3,COOLSYSPRIMARY SUPPLY EQUIPMENT BYPASS BRANCH,COOLSYSPRIMARY,Plant Supply,COOLSYSPRIMARY SUPPLY EQUIP BYPASS INLET NODE,COOLSYSPRIMARY SUPPLY EQUIP BYPASS OUTLET NODE
   Branch,4,COOLSYSPRIMARY SUPPLY OUTLET BRANCH,COOLSYSPRIMARY,Plant Supply,COOLSYSPRIMARY SUPPLY MIXER-COOLSYSPRIMARY SUPPLY OUTLET PIPE,COOLSYSPRIMARY SUPPLY OUTLET NODE
 Branch List,7,COOLSYSPRIMARY DEMAND BRANCHES,COOLSYSPRIMARY,Plant Demand,4
   Branch,1,COOLSYSPRIMARY DEMAND INLET BRANCH,COOLSYSPRIMARY,Plant Demand,COOLSYSPRIMARY DEMAND INLET NODE,COOLSYSPRIMARY DEMAND INLET PIPE-COOLSYSPRIMARY DEMAND MIXER
   Branch,2,COOLSYSPRIMARY CW STORAGE CHARGE BRANCH,COOLSYSPRIMARY,Plant Demand,CW TANK CHARGE INLET NODE,CW TANK CHARGE OUTLET NODE
   Branch,3,COOLSYSPRIMARY DEMAND BYPASS BRANCH,COOLSYSPRIMARY,Plant Demand,COOLSYSPRIMARY DEMAND BYPASS PIPE INLET NODE,COOLSYSPRIMARY DEMAND BYPASS PIPE OUTLET NODE
   Branch,4,COOLSYSPRIMARY DEMAND OUTLET BRANCH,COOLSYSPRIMARY,Plant Demand,COOLSYSPRIMARY DEMAND MIXER-COOLSYSPRIMARY DEMAND OUTLET PIPE,COOLSYSPRIMARY DEMAND OUTLET NODE
 Branch List,8,COOLSYSSECONDARY SUPPLY BRANCHES,COOLSYSSECONDARY,Plant Supply,5
   Branch,1,COOLSYSSECONDARY SUPPLY INLET BRANCH,COOLSYSSECONDARY,Plant Supply,COOLSYSSECONDARY SUPPLY INLET NODE,COOLSYSSECONDARY PUMP-COOLSYSSECONDARY CHILLERNODEVIACONNECTOR
   Branch,2,COOLSYSSECONDARY SUPPLY EQUIPMENT BRANCH,COOLSYSSECONDARY,Plant Supply,COOLSYSSECONDARY PUMP-COOLSYSSECONDARY CHILLERNODE,COOLSYSSECONDARY SUPPLY EQUIPMENT OUTLET NODE
   Branch,3,COOLSYSSECONDARY SUPPLY CW STORAGE DISCHARGE BRANCH,COOLSYSSECONDARY,Plant Supply,CW TANK DISCHARGE INLET NODE,CW TANK DISCHARGE OUTLET NODE
   Branch,4,COOLSYSSECONDARY SUPPLY EQUIPMENT BYPASS BRANCH,COOLSYSSECONDARY,Plant Supply,COOLSYSSECONDARY SUPPLY EQUIP BYPASS INLET NODE,COOLSYSSECONDARY SUPPLY EQUIP BYPASS OUTLET NODE
   Branch,5,COOLSYSSECONDARY SUPPLY OUTLET BRANCH,COOLSYSSECONDARY,Plant Supply,COOLSYSSECONDARY SUPPLY MIXER-COOLSYSSECONDARY SUPPLY OUTLET PIPE,COOLSYSSECONDARY SUPPLY OUTLET NODE
 Branch List,9,COOLSYSSECONDARY DEMAND BRANCHES,COOLSYSSECONDARY,Plant Demand,4
   Branch,1,COOLSYSSECONDARY DEMAND INLET BRANCH,COOLSYSSECONDARY,Plant Demand,COOLSYSSECONDARY DEMAND INLET NODE,COOLSYSSECONDARY DEMAND INLET PIPE-COOLSYSSECONDARY DEMAND MIXER
   Branch,2,COOLSYSSECONDARY DEMAND LOAD BRANCH 1,COOLSYSSECONDARY,Plant Demand,VAV WITH REHEAT_COOLCDEMAND INLET NODE,VAV WITH REHEAT_COOLCDEMAND OUTLET NODE
   Branch,3,COOLSYSSECONDARY DEMAND BYPASS BRANCH,COOLSYSSECONDARY,Plant Demand,COOLSYSSECONDARY DEMAND BYPASS PIPE INLET NODE,COOLSYSSECONDARY DEMAND BYPASS PIPE OUTLET NODE
   Branch,4,COOLSYSSECONDARY DEMAND OUTLET BRANCH,COOLSYSSECONDARY,Plant Demand,COOLSYSSECONDARY DEMAND MIXER-COOLSYSSECONDARY DEMAND OUTLET PIPE,COOLSYSSECONDARY DEMAND OUTLET NODE
 Branch List,10,TOWERWATERSYS SUPPLY BRANCHES,TOWERWATERSYS,Condenser Supply,4
   Branch,1,TOWERWATERSYS SUPPLY INLET BRANCH,TOWERWATERSYS,Condenser Supply,TOWERWATERSYS SUPPLY INLET NODE,TOWERWATERSYS PUMP-TOWERWATERSYS COOLTOWERNODEVIACONNECTOR
   Branch,2,TOWERWATERSYS SUPPLY EQUIPMENT BRANCH,TOWERWATERSYS,Condenser Supply,TOWERWATERSYS PUMP-TOWERWATERSYS COOLTOWERNODE,TOWERWATERSYS SUPPLY EQUIPMENT OUTLET NODE
   Branch,3,TOWERWATERSYS SUPPLY EQUIPMENT BYPASS BRANCH,TOWERWATERSYS,Condenser Supply,TOWERWATERSYS SUPPLY EQUIP BYPASS INLET NODE,TOWERWATERSYS SUPPLY EQUIP BYPASS OUTLET NODE
   Branch,4,TOWERWATERSYS SUPPLY OUTLET BRANCH,TOWERWATERSYS,Condenser Supply,TOWERWATERSYS SUPPLY MIXER-TOWERWATERSYS SUPPLY OUTLET PIPE,TOWERWATERSYS SUPPLY OUTLET NODE
 Branch List,11,TOWERWATERSYS DEMAND BRANCHES,TOWERWATERSYS,Condenser Demand,5
   Branch,1,TOWERWATERSYS DEMAND INLET BRANCH,TOWERWATERSYS,Condenser Demand,TOWERWATERSYS DEMAND INLET NODE,TOWERWATERSYS DEMAND INLET PIPE-TOWERWATERSYS DEMAND MIXER
   Branch,2,TOWERWATERSYS DEMAND LOAD BRANCH 1,TOWERWATERSYS,Condenser Demand,COOLSYSSECONDARY CHILLER WATER INLET NODE,COOLSYSSECONDARY CHILLER WATER OUTLET NODE
   Branch,3,TOWERWATERSYS DEMAND LOAD BRANCH 2,TOWERWATERSYS,Condenser Demand,COOLSYSPRIMARY CHILLER WATER INLET NODE,COOLSYSPRIMARY CHILLER WATER OUTLET NODE
   Branch,4,TOWERWATERSYS DEMAND BYPASS BRANCH,TOWERWATERSYS,Condenser Demand,TOWERWATERSYS DEMAND BYPASS PIPE INLET NODE,TOWERWATERSYS DEMAND BYPASS PIPE OUTLET NODE
   Branch,5,TOWERWATERSYS DEMAND OUTLET BRANCH,TOWERWATERSYS,Condenser Demand,TOWERWATERSYS DEMAND MIXER-TOWERWATERSYS DEMAND OUTLET PIPE,TOWERWATERSYS DEMAND OUTLET NODE
! ===============================================================
! <#Supply Air Paths>,<Number of Supply Air Paths>
 #Supply Air Paths,1
! <Supply Air Path>,<Supply Air Path Count>,<Supply Air Path Name>,<AirLoopHVAC Name>
! <#Components on Supply Air Path>,<Number of Components>
! <Supply Air Path Component>,<Component Count>,<Component Type>,<Component Name>,<AirLoopHVAC Name>
! <#Outlet Nodes on Supply Air Path Component>,<Number of Nodes>
! <Supply Air Path Component Nodes>,<Node Count>,<Component Type>,<Component Name>,<Inlet Node Name>,<Outlet Node Name>,<AirLoopHVAC Name>
 Supply Air Path,1,VAV WITH REHEAT,VAV WITH REHEAT
   #Components on Supply Air Path,1
   Supply Air Path Component,1,AIRLOOPHVAC:ZONESPLITTER,VAV WITH REHEAT SUPPLY AIR SPLITTER,VAV WITH REHEAT
     #Outlet Nodes on Supply Air Path Component,5
     Supply Air Path Component Nodes,1,AIRLOOPHVAC:ZONESPLITTER,VAV WITH REHEAT SUPPLY AIR SPLITTER,VAV WITH REHEAT ZONE EQUIPMENT INLET NODE,ZN_1_FLR_1_SEC_1 VAV BOX INLET NODE,VAV WITH REHEAT
     Supply Air Path Component Nodes,2,AIRLOOPHVAC:ZONESPLITTER,VAV WITH REHEAT SUPPLY AIR SPLITTER,VAV WITH REHEAT ZONE EQUIPMENT INLET NODE,ZN_1_FLR_1_SEC_2 VAV BOX INLET NODE,VAV WITH REHEAT
     Supply Air Path Component Nodes,3,AIRLOOPHVAC:ZONESPLITTER,VAV WITH REHEAT SUPPLY AIR SPLITTER,VAV WITH REHEAT ZONE EQUIPMENT INLET NODE,ZN_1_FLR_1_SEC_3 VAV BOX INLET NODE,VAV WITH REHEAT
     Supply Air Path Component Nodes,4,AIRLOOPHVAC:ZONESPLITTER,VAV WITH REHEAT SUPPLY AIR SPLITTER,VAV WITH REHEAT ZONE EQUIPMENT INLET NODE,ZN_1_FLR_1_SEC_4 VAV BOX INLET NODE,VAV WITH REHEAT
     Supply Air Path Component Nodes,5,AIRLOOPHVAC:ZONESPLITTER,VAV WITH REHEAT SUPPLY AIR SPLITTER,VAV WITH REHEAT ZONE EQUIPMENT INLET NODE,ZN_1_FLR_1_SEC_5 VAV BOX INLET NODE,VAV WITH REHEAT
! <#Nodes on Supply Air Path>,<Number of Nodes>
! <Supply Air Path Node>,<Node Type>,<Node Count>,<Node Name>,<AirLoopHVAC Name>
#Nodes on Supply Air Path,6
   Supply Air Path Node,Inlet Node,1,VAV WITH REHEAT ZONE EQUIPMENT INLET NODE,VAV WITH REHEAT
   Supply Air Path Node,Outlet Node,2,ZN_1_FLR_1_SEC_1 VAV BOX INLET NODE,VAV WITH REHEAT
   Supply Air Path Node,Outlet Node,3,ZN_1_FLR_1_SEC_2 VAV BOX INLET NODE,VAV WITH REHEAT
   Supply Air Path Node,Outlet Node,4,ZN_1_FLR_1_SEC_3 VAV BOX INLET NODE,VAV WITH REHEAT
   Supply Air Path Node,Outlet Node,5,ZN_1_FLR_1_SEC_4 VAV BOX INLET NODE,VAV WITH REHEAT
   Supply Air Path Node,Outlet Node,6,ZN_1_FLR_1_SEC_5 VAV BOX INLET NODE,VAV WITH REHEAT
! ===============================================================
! <#Return Air Paths>,<Number of Return Air Paths>
 #Return Air Paths,1
! <Return Air Path>,<Return Air Path Count>,<Return Air Path Name>,<AirLoopHVAC Name>
! <#Components on Return Air Path>,<Number of Components>
! <Return Air Path Component>,<Component Count>,<Component Type>,<Component Name>,<AirLoopHVAC Name>
! <#Inlet Nodes on Return Air Path Component>,<Number of Nodes>
! <Return Air Path Component Nodes>,<Node Count>,<Component Type>,<Component Name>,<Inlet Node Name>,<Outlet Node Name>,<AirLoopHVAC Name>
 Return Air Path,1,VAV WITH REHEAT RETURN AIR PATH,VAV WITH REHEAT
   #Components on Return Air Path,1
   Return Air Path Component,1,AIRLOOPHVAC:ZONEMIXER,VAV WITH REHEAT RETURN AIR MIXER,VAV WITH REHEAT
     #Inlet Nodes on Return Air Path Component,5
     Return Air Path Component Nodes,1,AIRLOOPHVAC:ZONEMIXER,VAV WITH REHEAT RETURN AIR MIXER,ZN_1_FLR_1_SEC_1 RETURN AIR NODE,VAV WITH REHEAT ZONE EQUIPMENT OUTLET NODE,VAV WITH REHEAT
     Return Air Path Component Nodes,2,AIRLOOPHVAC:ZONEMIXER,VAV WITH REHEAT RETURN AIR MIXER,ZN_1_FLR_1_SEC_2 RETURN AIR NODE,VAV WITH REHEAT ZONE EQUIPMENT OUTLET NODE,VAV WITH REHEAT
     Return Air Path Component Nodes,3,AIRLOOPHVAC:ZONEMIXER,VAV WITH REHEAT RETURN AIR MIXER,ZN_1_FLR_1_SEC_3 RETURN AIR NODE,VAV WITH REHEAT ZONE EQUIPMENT OUTLET NODE,VAV WITH REHEAT
     Return Air Path Component Nodes,4,AIRLOOPHVAC:ZONEMIXER,VAV WITH REHEAT RETURN AIR MIXER,ZN_1_FLR_1_SEC_4 RETURN AIR NODE,VAV WITH REHEAT ZONE EQUIPMENT OUTLET NODE,VAV WITH REHEAT
     Return Air Path Component Nodes,5,AIRLOOPHVAC:ZONEMIXER,VAV WITH REHEAT RETURN AIR MIXER,ZN_1_FLR_1_SEC_5 RETURN AIR NODE,VAV WITH REHEAT ZONE EQUIPMENT OUTLET NODE,VAV WITH REHEAT
! <#Nodes on Return Air Path>,<Number of Nodes>
! <Return Air Path Node>,<Node Type>,<Node Count>,<Node Name>,<AirLoopHVAC Name>
   #Nodes on Return Air Path,6
   Return Air Path Node,Outlet Node,1,VAV WITH REHEAT ZONE EQUIPMENT OUTLET NODE,VAV WITH REHEAT
   Return Air Path Node,Inlet Node,2,ZN_1_FLR_1_SEC_1 RETURN AIR NODE,VAV WITH REHEAT
   Return Air Path Node,Inlet Node,3,ZN_1_FLR_1_SEC_2 RETURN AIR NODE,VAV WITH REHEAT
   Return Air Path Node,Inlet Node,4,ZN_1_FLR_1_SEC_3 RETURN AIR NODE,VAV WITH REHEAT
   Return Air Path Node,Inlet Node,5,ZN_1_FLR_1_SEC_4 RETURN AIR NODE,VAV WITH REHEAT
   Return Air Path Node,Inlet Node,6,ZN_1_FLR_1_SEC_5 RETURN AIR NODE,VAV WITH REHEAT
! ===============================================================
! #Outdoor Air Nodes,<Number of Outdoor Air Nodes>
 #Outdoor Air Nodes,1
! <Outdoor Air Node>,<NodeNumber>,<Node Name>
 Outdoor Air Node,7,VAV WITH REHEAT_OAINLET NODE
! ===============================================================
! <#Component Sets>,<Number of Component Sets>
 #Component Sets,67
! <Component Set>,<Component Set Count>,<Parent Object Type>,<Parent Object Name>,<Component Type>,<Component Name>,<Inlet Node ID>,<Outlet Node ID>,<Description>
 Component Set,1,BRANCH,VAV WITH REHEAT AIR LOOP MAIN BRANCH,AIRLOOPHVAC:OUTDOORAIRSYSTEM,VAV WITH REHEAT_OA,VAV WITH REHEAT SUPPLY EQUIPMENT INLET NODE,VAV WITH REHEAT_OA-VAV WITH REHEAT_COOLCNODE,Air Nodes
 Component Set,2,BRANCH,VAV WITH REHEAT AIR LOOP MAIN BRANCH,COIL:COOLING:WATER,VAV WITH REHEAT_COOLC,VAV WITH REHEAT_OA-VAV WITH REHEAT_COOLCNODE,VAV WITH REHEAT_COOLC-VAV WITH REHEAT_HEATCNODE,Air Nodes
 Component Set,3,BRANCH,VAV WITH REHEAT AIR LOOP MAIN BRANCH,COIL:HEATING:WATER,VAV WITH REHEAT_HEATC,VAV WITH REHEAT_COOLC-VAV WITH REHEAT_HEATCNODE,VAV WITH REHEAT_HEATC-VAV WITH REHEAT FANNODE,Air Nodes
 Component Set,4,BRANCH,VAV WITH REHEAT AIR LOOP MAIN BRANCH,FAN:VARIABLEVOLUME,VAV WITH REHEAT FAN,VAV WITH REHEAT_HEATC-VAV WITH REHEAT FANNODE,VAV WITH REHEAT SUPPLY EQUIPMENT OUTLET NODE,Air Nodes
 Component Set,5,BRANCH,SHWSYS1 SUPPLY INLET BRANCH,PUMP:VARIABLESPEED,SHWSYS1 PUMP,SHWSYS1 SUPPLY INLET NODE,SHWSYS1 PUMP-SHWSYS1 WATER HEATERNODEVIACONNECTOR,Water Nodes
 Component Set,6,BRANCH,SHWSYS1 SUPPLY EQUIPMENT BRANCH,WATERHEATER:MIXED,SHWSYS1 WATER HEATER,SHWSYS1 PUMP-SHWSYS1 WATER HEATERNODE,SHWSYS1 SUPPLY EQUIPMENT OUTLET NODE,Use Side Water Nodes
 Component Set,7,BRANCH,SHWSYS1 SUPPLY EQUIPMENT BYPASS BRANCH,PIPE:ADIABATIC,SHWSYS1 SUPPLY EQUIPMENT BYPASS PIPE,SHWSYS1 SUPPLY EQUIP BYPASS INLET NODE,SHWSYS1 SUPPLY EQUIP BYPASS OUTLET NODE,Pipe Nodes
 Component Set,8,BRANCH,SHWSYS1 SUPPLY OUTLET BRANCH,PIPE:ADIABATIC,SHWSYS1 SUPPLY OUTLET PIPE,SHWSYS1 SUPPLY MIXER-SHWSYS1 SUPPLY OUTLET PIPE,SHWSYS1 SUPPLY OUTLET NODE,Pipe Nodes
 Component Set,9,BRANCH,SHWSYS1 DEMAND INLET BRANCH,PIPE:ADIABATIC,SHWSYS1 DEMAND INLET PIPE,SHWSYS1 DEMAND INLET NODE,SHWSYS1 DEMAND INLET PIPE-SHWSYS1 DEMAND MIXER,Pipe Nodes
 Component Set,10,BRANCH,SHWSYS1 DEMAND LOAD BRANCH 1,WATERUSE:CONNECTIONS,ZN_1_FLR_1_SEC_1SHW_DEFAULT,ZN_1_FLR_1_SEC_1SHW_DEFAULT WATER INLET NODE,ZN_1_FLR_1_SEC_1SHW_DEFAULT WATER OUTLET NODE,DHW Nodes
 Component Set,11,BRANCH,SHWSYS1 DEMAND LOAD BRANCH 2,WATERUSE:CONNECTIONS,ZN_1_FLR_1_SEC_2SHW_DEFAULT,ZN_1_FLR_1_SEC_2SHW_DEFAULT WATER INLET NODE,ZN_1_FLR_1_SEC_2SHW_DEFAULT WATER OUTLET NODE,DHW Nodes
 Component Set,12,BRANCH,SHWSYS1 DEMAND LOAD BRANCH 3,WATERUSE:CONNECTIONS,ZN_1_FLR_1_SEC_3SHW_DEFAULT,ZN_1_FLR_1_SEC_3SHW_DEFAULT WATER INLET NODE,ZN_1_FLR_1_SEC_3SHW_DEFAULT WATER OUTLET NODE,DHW Nodes
 Component Set,13,BRANCH,SHWSYS1 DEMAND LOAD BRANCH 4,WATERUSE:CONNECTIONS,ZN_1_FLR_1_SEC_4SHW_DEFAULT,ZN_1_FLR_1_SEC_4SHW_DEFAULT WATER INLET NODE,ZN_1_FLR_1_SEC_4SHW_DEFAULT WATER OUTLET NODE,DHW Nodes
 Component Set,14,BRANCH,SHWSYS1 DEMAND LOAD BRANCH 5,WATERUSE:CONNECTIONS,ZN_1_FLR_1_SEC_5SHW_DEFAULT,ZN_1_FLR_1_SEC_5SHW_DEFAULT WATER INLET NODE,ZN_1_FLR_1_SEC_5SHW_DEFAULT WATER OUTLET NODE,DHW Nodes
 Component Set,15,BRANCH,SHWSYS1 DEMAND BYPASS BRANCH,PIPE:ADIABATIC,SHWSYS1 DEMAND BYPASS PIPE,SHWSYS1 DEMAND BYPASS PIPE INLET NODE,SHWSYS1 DEMAND BYPASS PIPE OUTLET NODE,Pipe Nodes
 Component Set,16,BRANCH,SHWSYS1 DEMAND OUTLET BRANCH,PIPE:ADIABATIC,SHWSYS1 DEMAND OUTLET PIPE,SHWSYS1 DEMAND MIXER-SHWSYS1 DEMAND OUTLET PIPE,SHWSYS1 DEMAND OUTLET NODE,Pipe Nodes
 Component Set,17,BRANCH,HEATSYS1 SUPPLY INLET BRANCH,PUMP:VARIABLESPEED,HEATSYS1 PUMP,HEATSYS1 SUPPLY INLET NODE,HEATSYS1 PUMP-HEATSYS1 BOILERNODEVIACONNECTOR,Water Nodes
 Component Set,18,BRANCH,HEATSYS1 SUPPLY EQUIPMENT BRANCH,BOILER:HOTWATER,HEATSYS1 BOILER,HEATSYS1 PUMP-HEATSYS1 BOILERNODE,HEATSYS1 SUPPLY EQUIPMENT OUTLET NODE,Hot Water Nodes
 Component Set,19,BRANCH,HEATSYS1 SUPPLY EQUIPMENT BYPASS BRANCH,PIPE:ADIABATIC,HEATSYS1 SUPPLY EQUIPMENT BYPASS PIPE,HEATSYS1 SUPPLY EQUIP BYPASS INLET NODE,HEATSYS1 SUPPLY EQUIP BYPASS OUTLET NODE,Pipe Nodes
 Component Set,20,BRANCH,HEATSYS1 SUPPLY OUTLET BRANCH,PIPE:ADIABATIC,HEATSYS1 SUPPLY OUTLET PIPE,HEATSYS1 SUPPLY MIXER-HEATSYS1 SUPPLY OUTLET PIPE,HEATSYS1 SUPPLY OUTLET NODE,Pipe Nodes
 Component Set,21,BRANCH,HEATSYS1 DEMAND INLET BRANCH,PIPE:ADIABATIC,HEATSYS1 DEMAND INLET PIPE,HEATSYS1 DEMAND INLET NODE,HEATSYS1 DEMAND INLET PIPE-HEATSYS1 DEMAND MIXER,Pipe Nodes
 Component Set,22,BRANCH,HEATSYS1 DEMAND LOAD BRANCH 1,COIL:HEATING:WATER,ZN_1_FLR_1_SEC_1 VAV BOX REHEAT COIL,ZN_1_FLR_1_SEC_1 VAV BOX REHEAT COILDEMAND INLET NODE,ZN_1_FLR_1_SEC_1 VAV BOX REHEAT COILDEMAND OUTLET NODE,Water Nodes
 Component Set,23,BRANCH,HEATSYS1 DEMAND LOAD BRANCH 2,COIL:HEATING:WATER,ZN_1_FLR_1_SEC_2 VAV BOX REHEAT COIL,ZN_1_FLR_1_SEC_2 VAV BOX REHEAT COILDEMAND INLET NODE,ZN_1_FLR_1_SEC_2 VAV BOX REHEAT COILDEMAND OUTLET NODE,Water Nodes
 Component Set,24,BRANCH,HEATSYS1 DEMAND LOAD BRANCH 3,COIL:HEATING:WATER,ZN_1_FLR_1_SEC_3 VAV BOX REHEAT COIL,ZN_1_FLR_1_SEC_3 VAV BOX REHEAT COILDEMAND INLET NODE,ZN_1_FLR_1_SEC_3 VAV BOX REHEAT COILDEMAND OUTLET NODE,Water Nodes
 Component Set,25,BRANCH,HEATSYS1 DEMAND LOAD BRANCH 4,COIL:HEATING:WATER,ZN_1_FLR_1_SEC_4 VAV BOX REHEAT COIL,ZN_1_FLR_1_SEC_4 VAV BOX REHEAT COILDEMAND INLET NODE,ZN_1_FLR_1_SEC_4 VAV BOX REHEAT COILDEMAND OUTLET NODE,Water Nodes
 Component Set,26,BRANCH,HEATSYS1 DEMAND LOAD BRANCH 5,COIL:HEATING:WATER,ZN_1_FLR_1_SEC_5 VAV BOX REHEAT COIL,ZN_1_FLR_1_SEC_5 VAV BOX REHEAT COILDEMAND INLET NODE,ZN_1_FLR_1_SEC_5 VAV BOX REHEAT COILDEMAND OUTLET NODE,Water Nodes
 Component Set,27,BRANCH,HEATSYS1 DEMAND LOAD BRANCH 6,COIL:HEATING:WATER,VAV WITH REHEAT_HEATC,VAV WITH REHEAT_HEATCDEMAND INLET NODE,VAV WITH REHEAT_HEATCDEMAND OUTLET NODE,Water Nodes
 Component Set,28,BRANCH,HEATSYS1 DEMAND BYPASS BRANCH,PIPE:ADIABATIC,HEATSYS1 DEMAND BYPASS PIPE,HEATSYS1 DEMAND BYPASS PIPE INLET NODE,HEATSYS1 DEMAND BYPASS PIPE OUTLET NODE,Pipe Nodes
 Component Set,29,BRANCH,HEATSYS1 DEMAND OUTLET BRANCH,PIPE:ADIABATIC,HEATSYS1 DEMAND OUTLET PIPE,HEATSYS1 DEMAND MIXER-HEATSYS1 DEMAND OUTLET PIPE,HEATSYS1 DEMAND OUTLET NODE,Pipe Nodes
 Component Set,30,BRANCH,COOLSYSPRIMARY SUPPLY INLET BRANCH,PUMP:VARIABLESPEED,COOLSYSPRIMARY PUMP,COOLSYSPRIMARY SUPPLY INLET NODE,COOLSYSPRIMARY PUMP-COOLSYSPRIMARY CHILLERNODEVIACONNECTOR,Water Nodes
 Component Set,31,BRANCH,COOLSYSPRIMARY SUPPLY EQUIPMENT BRANCH,CHILLER:ELECTRIC:EIR,COOLSYSPRIMARY CHILLER,COOLSYSPRIMARY PUMP-COOLSYSPRIMARY CHILLERNODE,COOLSYSPRIMARY SUPPLY EQUIPMENT OUTLET NODE,Chilled Water Nodes
 Component Set,32,BRANCH,COOLSYSPRIMARY SUPPLY EQUIPMENT BYPASS BRANCH,PIPE:ADIABATIC,COOLSYSPRIMARY SUPPLY EQUIPMENT BYPASS PIPE,COOLSYSPRIMARY SUPPLY EQUIP BYPASS INLET NODE,COOLSYSPRIMARY SUPPLY EQUIP BYPASS OUTLET NODE,Pipe Nodes
 Component Set,33,BRANCH,COOLSYSPRIMARY SUPPLY OUTLET BRANCH,PIPE:ADIABATIC,COOLSYSPRIMARY SUPPLY OUTLET PIPE,COOLSYSPRIMARY SUPPLY MIXER-COOLSYSPRIMARY SUPPLY OUTLET PIPE,COOLSYSPRIMARY SUPPLY OUTLET NODE,Pipe Nodes
 Component Set,34,BRANCH,COOLSYSPRIMARY DEMAND INLET BRANCH,PIPE:ADIABATIC,COOLSYSPRIMARY DEMAND INLET PIPE,COOLSYSPRIMARY DEMAND INLET NODE,COOLSYSPRIMARY DEMAND INLET PIPE-COOLSYSPRIMARY DEMAND MIXER,Pipe Nodes
 Component Set,35,BRANCH,COOLSYSPRIMARY CW STORAGE CHARGE BRANCH,THERMALSTORAGE:CHILLEDWATER:MIXED,CHILLED WATER STORAGE TANK 1,CW TANK CHARGE INLET NODE,CW TANK CHARGE OUTLET NODE,Source Side Water Nodes
 Component Set,36,BRANCH,COOLSYSPRIMARY DEMAND BYPASS BRANCH,PIPE:ADIABATIC,COOLSYSPRIMARY DEMAND BYPASS PIPE,COOLSYSPRIMARY DEMAND BYPASS PIPE INLET NODE,COOLSYSPRIMARY DEMAND BYPASS PIPE OUTLET NODE,Pipe Nodes
 Component Set,37,BRANCH,COOLSYSPRIMARY DEMAND OUTLET BRANCH,PIPE:ADIABATIC,COOLSYSPRIMARY DEMAND OUTLET PIPE,COOLSYSPRIMARY DEMAND MIXER-COOLSYSPRIMARY DEMAND OUTLET PIPE,COOLSYSPRIMARY DEMAND OUTLET NODE,Pipe Nodes
 Component Set,38,BRANCH,COOLSYSSECONDARY SUPPLY INLET BRANCH,PUMP:VARIABLESPEED,COOLSYSSECONDARY PUMP,COOLSYSSECONDARY SUPPLY INLET NODE,COOLSYSSECONDARY PUMP-COOLSYSSECONDARY CHILLERNODEVIACONNECTOR,Water Nodes
 Component Set,39,BRANCH,COOLSYSSECONDARY SUPPLY EQUIPMENT BRANCH,CHILLER:ELECTRIC:EIR,COOLSYSSECONDARY CHILLER,COOLSYSSECONDARY PUMP-COOLSYSSECONDARY CHILLERNODE,COOLSYSSECONDARY SUPPLY EQUIPMENT OUTLET NODE,Chilled Water Nodes
 Component Set,40,BRANCH,COOLSYSSECONDARY SUPPLY CW STORAGE DISCHARGE BRANCH,THERMALSTORAGE:CHILLEDWATER:MIXED,CHILLED WATER STORAGE TANK 1,CW TANK DISCHARGE INLET NODE,CW TANK DISCHARGE OUTLET NODE,Use Side Water Nodes
 Component Set,41,BRANCH,COOLSYSSECONDARY SUPPLY EQUIPMENT BYPASS BRANCH,PIPE:ADIABATIC,COOLSYSSECONDARY SUPPLY EQUIPMENT BYPASS PIPE,COOLSYSSECONDARY SUPPLY EQUIP BYPASS INLET NODE,COOLSYSSECONDARY SUPPLY EQUIP BYPASS OUTLET NODE,Pipe Nodes
 Component Set,42,BRANCH,COOLSYSSECONDARY SUPPLY OUTLET BRANCH,PIPE:ADIABATIC,COOLSYSSECONDARY SUPPLY OUTLET PIPE,COOLSYSSECONDARY SUPPLY MIXER-COOLSYSSECONDARY SUPPLY OUTLET PIPE,COOLSYSSECONDARY SUPPLY OUTLET NODE,Pipe Nodes
 Component Set,43,BRANCH,COOLSYSSECONDARY DEMAND INLET BRANCH,PIPE:ADIABATIC,COOLSYSSECONDARY DEMAND INLET PIPE,COOLSYSSECONDARY DEMAND INLET NODE,COOLSYSSECONDARY DEMAND INLET PIPE-COOLSYSSECONDARY DEMAND MIXER,Pipe Nodes
 Component Set,44,BRANCH,COOLSYSSECONDARY DEMAND LOAD BRANCH 1,COIL:COOLING:WATER,VAV WITH REHEAT_COOLC,VAV WITH REHEAT_COOLCDEMAND INLET NODE,VAV WITH REHEAT_COOLCDEMAND OUTLET NODE,Water Nodes
 Component Set,45,BRANCH,COOLSYSSECONDARY DEMAND BYPASS BRANCH,PIPE:ADIABATIC,COOLSYSSECONDARY DEMAND BYPASS PIPE,COOLSYSSECONDARY DEMAND BYPASS PIPE INLET NODE,COOLSYSSECONDARY DEMAND BYPASS PIPE OUTLET NODE,Pipe Nodes
 Component Set,46,BRANCH,COOLSYSSECONDARY DEMAND OUTLET BRANCH,PIPE:ADIABATIC,COOLSYSSECONDARY DEMAND OUTLET PIPE,COOLSYSSECONDARY DEMAND MIXER-COOLSYSSECONDARY DEMAND OUTLET PIPE,COOLSYSSECONDARY DEMAND OUTLET NODE,Pipe Nodes
 Component Set,47,BRANCH,TOWERWATERSYS SUPPLY INLET BRANCH,PUMP:CONSTANTSPEED,TOWERWATERSYS PUMP,TOWERWATERSYS SUPPLY INLET NODE,TOWERWATERSYS PUMP-TOWERWATERSYS COOLTOWERNODEVIACONNECTOR,Water Nodes
 Component Set,48,BRANCH,TOWERWATERSYS SUPPLY EQUIPMENT BRANCH,COOLINGTOWER:SINGLESPEED,TOWERWATERSYS COOLTOWER,TOWERWATERSYS PUMP-TOWERWATERSYS COOLTOWERNODE,TOWERWATERSYS SUPPLY EQUIPMENT OUTLET NODE,Chilled Water Nodes
 Component Set,49,BRANCH,TOWERWATERSYS SUPPLY EQUIPMENT BYPASS BRANCH,PIPE:ADIABATIC,TOWERWATERSYS SUPPLY EQUIPMENT BYPASS PIPE,TOWERWATERSYS SUPPLY EQUIP BYPASS INLET NODE,TOWERWATERSYS SUPPLY EQUIP BYPASS OUTLET NODE,Pipe Nodes
 Component Set,50,BRANCH,TOWERWATERSYS SUPPLY OUTLET BRANCH,PIPE:ADIABATIC,TOWERWATERSYS SUPPLY OUTLET PIPE,TOWERWATERSYS SUPPLY MIXER-TOWERWATERSYS SUPPLY OUTLET PIPE,TOWERWATERSYS SUPPLY OUTLET NODE,Pipe Nodes
 Component Set,51,BRANCH,TOWERWATERSYS DEMAND INLET BRANCH,PIPE:ADIABATIC,TOWERWATERSYS DEMAND INLET PIPE,TOWERWATERSYS DEMAND INLET NODE,TOWERWATERSYS DEMAND INLET PIPE-TOWERWATERSYS DEMAND MIXER,Pipe Nodes
 Component Set,52,BRANCH,TOWERWATERSYS DEMAND LOAD BRANCH 1,CHILLER:ELECTRIC:EIR,COOLSYSSECONDARY CHILLER,COOLSYSSECONDARY CHILLER WATER INLET NODE,COOLSYSSECONDARY CHILLER WATER OUTLET NODE,Condenser Water Nodes
 Component Set,53,BRANCH,TOWERWATERSYS DEMAND LOAD BRANCH 2,CHILLER:ELECTRIC:EIR,COOLSYSPRIMARY CHILLER,COOLSYSPRIMARY CHILLER WATER INLET NODE,COOLSYSPRIMARY CHILLER WATER OUTLET NODE,Condenser Water Nodes
 Component Set,54,BRANCH,TOWERWATERSYS DEMAND BYPASS BRANCH,PIPE:ADIABATIC,TOWERWATERSYS DEMAND BYPASS PIPE,TOWERWATERSYS DEMAND BYPASS PIPE INLET NODE,TOWERWATERSYS DEMAND BYPASS PIPE OUTLET NODE,Pipe Nodes
 Component Set,55,BRANCH,TOWERWATERSYS DEMAND OUTLET BRANCH,PIPE:ADIABATIC,TOWERWATERSYS DEMAND OUTLET PIPE,TOWERWATERSYS DEMAND MIXER-TOWERWATERSYS DEMAND OUTLET PIPE,TOWERWATERSYS DEMAND OUTLET NODE,Pipe Nodes
 Component Set,56,ZONEHVAC:AIRDISTRIBUTIONUNIT,ZN_1_FLR_1_SEC_1 VAV BOX,AIRTERMINAL:SINGLEDUCT:SERIESPIU:REHEAT,ZN_1_FLR_1_SEC_1 VAV BOX COMPONENT,ZN_1_FLR_1_SEC_1 VAV BOX INLET NODE,ZN_1_FLR_1_SEC_1 VAV BOX OUTLET NODE,Air Nodes
 Component Set,57,ZONEHVAC:AIRDISTRIBUTIONUNIT,ZN_1_FLR_1_SEC_2 VAV BOX,AIRTERMINAL:SINGLEDUCT:VAV:REHEAT,ZN_1_FLR_1_SEC_2 VAV BOX COMPONENT,ZN_1_FLR_1_SEC_2 VAV BOX INLET NODE,ZN_1_FLR_1_SEC_2 VAV BOX OUTLET NODE,Air Nodes
 Component Set,58,ZONEHVAC:AIRDISTRIBUTIONUNIT,ZN_1_FLR_1_SEC_3 VAV BOX,AIRTERMINAL:SINGLEDUCT:VAV:REHEAT,ZN_1_FLR_1_SEC_3 VAV BOX COMPONENT,ZN_1_FLR_1_SEC_3 VAV BOX INLET NODE,ZN_1_FLR_1_SEC_3 VAV BOX OUTLET NODE,Air Nodes
 Component Set,59,ZONEHVAC:AIRDISTRIBUTIONUNIT,ZN_1_FLR_1_SEC_4 VAV BOX,AIRTERMINAL:SINGLEDUCT:VAV:REHEAT,ZN_1_FLR_1_SEC_4 VAV BOX COMPONENT,ZN_1_FLR_1_SEC_4 VAV BOX INLET NODE,ZN_1_FLR_1_SEC_4 VAV BOX OUTLET NODE,Air Nodes
 Component Set,60,ZONEHVAC:AIRDISTRIBUTIONUNIT,ZN_1_FLR_1_SEC_5 VAV BOX,AIRTERMINAL:SINGLEDUCT:VAV:REHEAT,ZN_1_FLR_1_SEC_5 VAV BOX COMPONENT,ZN_1_FLR_1_SEC_5 VAV BOX INLET NODE,ZN_1_FLR_1_SEC_5 VAV BOX OUTLET NODE,Air Nodes
 Component Set,61,AIRTERMINAL:SINGLEDUCT:SERIESPIU:REHEAT,ZN_1_FLR_1_SEC_1 VAV BOX COMPONENT,COIL:HEATING:WATER,ZN_1_FLR_1_SEC_1 VAV BOX REHEAT COIL,ZN_1_FLR_1_SEC_1 VAV BOX DAMPER NODE,ZN_1_FLR_1_SEC_1 VAV BOX OUTLET NODE,Air Nodes
 Component Set,62,AIRTERMINAL:SINGLEDUCT:VAV:REHEAT,ZN_1_FLR_1_SEC_2 VAV BOX COMPONENT,COIL:HEATING:WATER,ZN_1_FLR_1_SEC_2 VAV BOX REHEAT COIL,ZN_1_FLR_1_SEC_2 VAV BOX DAMPER NODE,ZN_1_FLR_1_SEC_2 VAV BOX OUTLET NODE,Air Nodes
 Component Set,63,AIRTERMINAL:SINGLEDUCT:VAV:REHEAT,ZN_1_FLR_1_SEC_3 VAV BOX COMPONENT,COIL:HEATING:WATER,ZN_1_FLR_1_SEC_3 VAV BOX REHEAT COIL,ZN_1_FLR_1_SEC_3 VAV BOX DAMPER NODE,ZN_1_FLR_1_SEC_3 VAV BOX OUTLET NODE,Air Nodes
 Component Set,64,AIRTERMINAL:SINGLEDUCT:VAV:REHEAT,ZN_1_FLR_1_SEC_4 VAV BOX COMPONENT,COIL:HEATING:WATER,ZN_1_FLR_1_SEC_4 VAV BOX REHEAT COIL,ZN_1_FLR_1_SEC_4 VAV BOX DAMPER NODE,ZN_1_FLR_1_SEC_4 VAV BOX OUTLET NODE,Air Nodes
 Component Set,65,AIRTERMINAL:SINGLEDUCT:VAV:REHEAT,ZN_1_FLR_1_SEC_5 VAV BOX COMPONENT,COIL:HEATING:WATER,ZN_1_FLR_1_SEC_5 VAV BOX REHEAT COIL,ZN_1_FLR_1_SEC_5 VAV BOX DAMPER NODE,ZN_1_FLR_1_SEC_5 VAV BOX OUTLET NODE,Air Nodes
 Component Set,66,AIRTERMINAL:SINGLEDUCT:SERIESPIU:REHEAT,ZN_1_FLR_1_SEC_1 VAV BOX COMPONENT,FAN:CONSTANTVOLUME,ZONE 1 PIU FAN,ZONE 1 PIU MIXER AIR OUTLET NODE,ZN_1_FLR_1_SEC_1 VAV BOX DAMPER NODE,Air Nodes
 Component Set,67,AIRLOOPHVAC:OUTDOORAIRSYSTEM,VAV WITH REHEAT_OA,OUTDOORAIR:MIXER,VAV WITH REHEAT_OAMIXING BOX,VAV WITH REHEAT_OAINLET NODE,VAV WITH REHEAT_OA-VAV WITH REHEAT_COOLCNODE,Air Nodes
! ===============================================================
! <# Plant Loops>,<Number of Plant Loops>
 #Plant Loops,4
! <Plant Loop>,<Plant Loop Name>,<Loop Type>,<Inlet Node Name>,<Outlet Node Name>,<Branch List>,<Connector List>
! <Plant Loop Connector>,<Connector Type>,<Connector Name>,<Loop Name>,<Loop Type>,<Number of Inlets/Outlets>
! <Plant Loop Connector Branches>,<Connector Node Count>,<Connector Type>,<Connector Name>,<Inlet Branch>,<Outlet Branch>,<Loop Name>,<Loop Type>
! <Plant Loop Connector Nodes>,<Connector Node Count>,<Connector Type>,<Connector Name>,<Inlet Node>,<Outlet Node>,<Loop Name>,<Loop Type>
! <Plant Loop Supply Connection>,<Plant Loop Name>,<Supply Side Outlet Node Name>,<Demand Side Inlet Node Name>
! <Plant Loop Return Connection>,<Plant Loop Name>,<Demand Side Outlet Node Name>,<Supply Side Inlet Node Name>
 Plant Loop,SHWSYS1,Demand,SHWSYS1 DEMAND INLET NODE,SHWSYS1 DEMAND OUTLET NODE,SHWSYS1 DEMAND BRANCHES,SHWSYS1 DEMAND CONNECTORS
   Plant Loop Connector,Splitter,SHWSYS1 DEMAND SPLITTER,SHWSYS1,Demand,6
     Plant Loop Connector Branches,1,Splitter,SHWSYS1 DEMAND SPLITTER,SHWSYS1 DEMAND INLET BRANCH,SHWSYS1 DEMAND LOAD BRANCH 1,SHWSYS1,Demand
     Plant Loop Connector Nodes,   1,Splitter,SHWSYS1 DEMAND SPLITTER,SHWSYS1 DEMAND INLET PIPE-SHWSYS1 DEMAND MIXER,ZN_1_FLR_1_SEC_1SHW_DEFAULT WATER INLET NODE,SHWSYS1,Demand
     Plant Loop Connector Branches,2,Splitter,SHWSYS1 DEMAND SPLITTER,SHWSYS1 DEMAND INLET BRANCH,SHWSYS1 DEMAND LOAD BRANCH 2,SHWSYS1,Demand
     Plant Loop Connector Nodes,   2,Splitter,SHWSYS1 DEMAND SPLITTER,SHWSYS1 DEMAND INLET PIPE-SHWSYS1 DEMAND MIXER,ZN_1_FLR_1_SEC_2SHW_DEFAULT WATER INLET NODE,SHWSYS1,Demand
     Plant Loop Connector Branches,3,Splitter,SHWSYS1 DEMAND SPLITTER,SHWSYS1 DEMAND INLET BRANCH,SHWSYS1 DEMAND LOAD BRANCH 3,SHWSYS1,Demand
     Plant Loop Connector Nodes,   3,Splitter,SHWSYS1 DEMAND SPLITTER,SHWSYS1 DEMAND INLET PIPE-SHWSYS1 DEMAND MIXER,ZN_1_FLR_1_SEC_3SHW_DEFAULT WATER INLET NODE,SHWSYS1,Demand
     Plant Loop Connector Branches,4,Splitter,SHWSYS1 DEMAND SPLITTER,SHWSYS1 DEMAND INLET BRANCH,SHWSYS1 DEMAND LOAD BRANCH 4,SHWSYS1,Demand
     Plant Loop Connector Nodes,   4,Splitter,SHWSYS1 DEMAND SPLITTER,SHWSYS1 DEMAND INLET PIPE-SHWSYS1 DEMAND MIXER,ZN_1_FLR_1_SEC_4SHW_DEFAULT WATER INLET NODE,SHWSYS1,Demand
     Plant Loop Connector Branches,5,Splitter,SHWSYS1 DEMAND SPLITTER,SHWSYS1 DEMAND INLET BRANCH,SHWSYS1 DEMAND LOAD BRANCH 5,SHWSYS1,Demand
     Plant Loop Connector Nodes,   5,Splitter,SHWSYS1 DEMAND SPLITTER,SHWSYS1 DEMAND INLET PIPE-SHWSYS1 DEMAND MIXER,ZN_1_FLR_1_SEC_5SHW_DEFAULT WATER INLET NODE,SHWSYS1,Demand
     Plant Loop Connector Branches,6,Splitter,SHWSYS1 DEMAND SPLITTER,SHWSYS1 DEMAND INLET BRANCH,SHWSYS1 DEMAND BYPASS BRANCH,SHWSYS1,Demand
     Plant Loop Connector Nodes,   6,Splitter,SHWSYS1 DEMAND SPLITTER,SHWSYS1 DEMAND INLET PIPE-SHWSYS1 DEMAND MIXER,SHWSYS1 DEMAND BYPASS PIPE INLET NODE,SHWSYS1,Demand
   Plant Loop Connector,Mixer,SHWSYS1 DEMAND MIXER,SHWSYS1,Demand,6
     Plant Loop Connector Branches,1,Mixer,SHWSYS1 DEMAND MIXER,SHWSYS1 DEMAND LOAD BRANCH 1,SHWSYS1 DEMAND OUTLET BRANCH,SHWSYS1,Demand
     Plant Loop Connector Nodes,   1,Mixer,SHWSYS1 DEMAND MIXER,ZN_1_FLR_1_SEC_1SHW_DEFAULT WATER OUTLET NODE,SHWSYS1 DEMAND MIXER-SHWSYS1 DEMAND OUTLET PIPE,SHWSYS1,Demand
     Plant Loop Connector Branches,2,Mixer,SHWSYS1 DEMAND MIXER,SHWSYS1 DEMAND LOAD BRANCH 2,SHWSYS1 DEMAND OUTLET BRANCH,SHWSYS1,Demand
     Plant Loop Connector Nodes,   2,Mixer,SHWSYS1 DEMAND MIXER,ZN_1_FLR_1_SEC_2SHW_DEFAULT WATER OUTLET NODE,SHWSYS1 DEMAND MIXER-SHWSYS1 DEMAND OUTLET PIPE,SHWSYS1,Demand
     Plant Loop Connector Branches,3,Mixer,SHWSYS1 DEMAND MIXER,SHWSYS1 DEMAND LOAD BRANCH 3,SHWSYS1 DEMAND OUTLET BRANCH,SHWSYS1,Demand
     Plant Loop Connector Nodes,   3,Mixer,SHWSYS1 DEMAND MIXER,ZN_1_FLR_1_SEC_3SHW_DEFAULT WATER OUTLET NODE,SHWSYS1 DEMAND MIXER-SHWSYS1 DEMAND OUTLET PIPE,SHWSYS1,Demand
     Plant Loop Connector Branches,4,Mixer,SHWSYS1 DEMAND MIXER,SHWSYS1 DEMAND LOAD BRANCH 4,SHWSYS1 DEMAND OUTLET BRANCH,SHWSYS1,Demand
     Plant Loop Connector Nodes,   4,Mixer,SHWSYS1 DEMAND MIXER,ZN_1_FLR_1_SEC_4SHW_DEFAULT WATER OUTLET NODE,SHWSYS1 DEMAND MIXER-SHWSYS1 DEMAND OUTLET PIPE,SHWSYS1,Demand
     Plant Loop Connector Branches,5,Mixer,SHWSYS1 DEMAND MIXER,SHWSYS1 DEMAND LOAD BRANCH 5,SHWSYS1 DEMAND OUTLET BRANCH,SHWSYS1,Demand
     Plant Loop Connector Nodes,   5,Mixer,SHWSYS1 DEMAND MIXER,ZN_1_FLR_1_SEC_5SHW_DEFAULT WATER OUTLET NODE,SHWSYS1 DEMAND MIXER-SHWSYS1 DEMAND OUTLET PIPE,SHWSYS1,Demand
     Plant Loop Connector Branches,6,Mixer,SHWSYS1 DEMAND MIXER,SHWSYS1 DEMAND BYPASS BRANCH,SHWSYS1 DEMAND OUTLET BRANCH,SHWSYS1,Demand
     Plant Loop Connector Nodes,   6,Mixer,SHWSYS1 DEMAND MIXER,SHWSYS1 DEMAND BYPASS PIPE OUTLET NODE,SHWSYS1 DEMAND MIXER-SHWSYS1 DEMAND OUTLET PIPE,SHWSYS1,Demand
 Plant Loop,SHWSYS1,Supply,SHWSYS1 SUPPLY INLET NODE,SHWSYS1 SUPPLY OUTLET NODE,SHWSYS1 SUPPLY BRANCHES,SHWSYS1 SUPPLY CONNECTORS
   Plant Loop Connector,Splitter,SHWSYS1 SUPPLY SPLITTER,SHWSYS1,Supply,2
     Plant Loop Connector Branches,1,Splitter,SHWSYS1 SUPPLY SPLITTER,SHWSYS1 SUPPLY INLET BRANCH,SHWSYS1 SUPPLY EQUIPMENT BRANCH,SHWSYS1,Supply
     Plant Loop Connector Nodes,   1,Splitter,SHWSYS1 SUPPLY SPLITTER,SHWSYS1 PUMP-SHWSYS1 WATER HEATERNODEVIACONNECTOR,SHWSYS1 PUMP-SHWSYS1 WATER HEATERNODE,SHWSYS1,Supply
     Plant Loop Connector Branches,2,Splitter,SHWSYS1 SUPPLY SPLITTER,SHWSYS1 SUPPLY INLET BRANCH,SHWSYS1 SUPPLY EQUIPMENT BYPASS BRANCH,SHWSYS1,Supply
     Plant Loop Connector Nodes,   2,Splitter,SHWSYS1 SUPPLY SPLITTER,SHWSYS1 PUMP-SHWSYS1 WATER HEATERNODEVIACONNECTOR,SHWSYS1 SUPPLY EQUIP BYPASS INLET NODE,SHWSYS1,Supply
   Plant Loop Connector,Mixer,SHWSYS1 SUPPLY MIXER,SHWSYS1,Supply,2
     Plant Loop Connector Branches,1,Mixer,SHWSYS1 SUPPLY MIXER,SHWSYS1 SUPPLY EQUIPMENT BRANCH,SHWSYS1 SUPPLY OUTLET BRANCH,SHWSYS1,Supply
     Plant Loop Connector Nodes,   1,Mixer,SHWSYS1 SUPPLY MIXER,SHWSYS1 SUPPLY EQUIPMENT OUTLET NODE,SHWSYS1 SUPPLY MIXER-SHWSYS1 SUPPLY OUTLET PIPE,SHWSYS1,Supply
     Plant Loop Connector Branches,2,Mixer,SHWSYS1 SUPPLY MIXER,SHWSYS1 SUPPLY EQUIPMENT BYPASS BRANCH,SHWSYS1 SUPPLY OUTLET BRANCH,SHWSYS1,Supply
     Plant Loop Connector Nodes,   2,Mixer,SHWSYS1 SUPPLY MIXER,SHWSYS1 SUPPLY EQUIP BYPASS OUTLET NODE,SHWSYS1 SUPPLY MIXER-SHWSYS1 SUPPLY OUTLET PIPE,SHWSYS1,Supply
 Plant Loop Supply Connection,SHWSYS1,SHWSYS1 SUPPLY OUTLET NODE,SHWSYS1 DEMAND INLET NODE
 Plant Loop Return Connection,SHWSYS1,SHWSYS1 DEMAND OUTLET NODE,SHWSYS1 SUPPLY INLET NODE
 Plant Loop,HEATSYS1,Demand,HEATSYS1 DEMAND INLET NODE,HEATSYS1 DEMAND OUTLET NODE,HEATSYS1 DEMAND BRANCHES,HEATSYS1 DEMAND CONNECTORS
   Plant Loop Connector,Splitter,HEATSYS1 DEMAND SPLITTER,HEATSYS1,Demand,7
     Plant Loop Connector Branches,1,Splitter,HEATSYS1 DEMAND SPLITTER,HEATSYS1 DEMAND INLET BRANCH,HEATSYS1 DEMAND LOAD BRANCH 1,HEATSYS1,Demand
     Plant Loop Connector Nodes,   1,Splitter,HEATSYS1 DEMAND SPLITTER,HEATSYS1 DEMAND INLET PIPE-HEATSYS1 DEMAND MIXER,ZN_1_FLR_1_SEC_1 VAV BOX REHEAT COILDEMAND INLET NODE,HEATSYS1,Demand
     Plant Loop Connector Branches,2,Splitter,HEATSYS1 DEMAND SPLITTER,HEATSYS1 DEMAND INLET BRANCH,HEATSYS1 DEMAND LOAD BRANCH 2,HEATSYS1,Demand
     Plant Loop Connector Nodes,   2,Splitter,HEATSYS1 DEMAND SPLITTER,HEATSYS1 DEMAND INLET PIPE-HEATSYS1 DEMAND MIXER,ZN_1_FLR_1_SEC_2 VAV BOX REHEAT COILDEMAND INLET NODE,HEATSYS1,Demand
     Plant Loop Connector Branches,3,Splitter,HEATSYS1 DEMAND SPLITTER,HEATSYS1 DEMAND INLET BRANCH,HEATSYS1 DEMAND LOAD BRANCH 3,HEATSYS1,Demand
     Plant Loop Connector Nodes,   3,Splitter,HEATSYS1 DEMAND SPLITTER,HEATSYS1 DEMAND INLET PIPE-HEATSYS1 DEMAND MIXER,ZN_1_FLR_1_SEC_3 VAV BOX REHEAT COILDEMAND INLET NODE,HEATSYS1,Demand
     Plant Loop Connector Branches,4,Splitter,HEATSYS1 DEMAND SPLITTER,HEATSYS1 DEMAND INLET BRANCH,HEATSYS1 DEMAND LOAD BRANCH 4,HEATSYS1,Demand
     Plant Loop Connector Nodes,   4,Splitter,HEATSYS1 DEMAND SPLITTER,HEATSYS1 DEMAND INLET PIPE-HEATSYS1 DEMAND MIXER,ZN_1_FLR_1_SEC_4 VAV BOX REHEAT COILDEMAND INLET NODE,HEATSYS1,Demand
     Plant Loop Connector Branches,5,Splitter,HEATSYS1 DEMAND SPLITTER,HEATSYS1 DEMAND INLET BRANCH,HEATSYS1 DEMAND LOAD BRANCH 5,HEATSYS1,Demand
     Plant Loop Connector Nodes,   5,Splitter,HEATSYS1 DEMAND SPLITTER,HEATSYS1 DEMAND INLET PIPE-HEATSYS1 DEMAND MIXER,ZN_1_FLR_1_SEC_5 VAV BOX REHEAT COILDEMAND INLET NODE,HEATSYS1,Demand
     Plant Loop Connector Branches,6,Splitter,HEATSYS1 DEMAND SPLITTER,HEATSYS1 DEMAND INLET BRANCH,HEATSYS1 DEMAND LOAD BRANCH 6,HEATSYS1,Demand
     Plant Loop Connector Nodes,   6,Splitter,HEATSYS1 DEMAND SPLITTER,HEATSYS1 DEMAND INLET PIPE-HEATSYS1 DEMAND MIXER,VAV WITH REHEAT_HEATCDEMAND INLET NODE,HEATSYS1,Demand
     Plant Loop Connector Branches,7,Splitter,HEATSYS1 DEMAND SPLITTER,HEATSYS1 DEMAND INLET BRANCH,HEATSYS1 DEMAND BYPASS BRANCH,HEATSYS1,Demand
     Plant Loop Connector Nodes,   7,Splitter,HEATSYS1 DEMAND SPLITTER,HEATSYS1 DEMAND INLET PIPE-HEATSYS1 DEMAND MIXER,HEATSYS1 DEMAND BYPASS PIPE INLET NODE,HEATSYS1,Demand
   Plant Loop Connector,Mixer,HEATSYS1 DEMAND MIXER,HEATSYS1,Demand,7
     Plant Loop Connector Branches,1,Mixer,HEATSYS1 DEMAND MIXER,HEATSYS1 DEMAND LOAD BRANCH 1,HEATSYS1 DEMAND OUTLET BRANCH,HEATSYS1,Demand
     Plant Loop Connector Nodes,   1,Mixer,HEATSYS1 DEMAND MIXER,ZN_1_FLR_1_SEC_1 VAV BOX REHEAT COILDEMAND OUTLET NODE,HEATSYS1 DEMAND MIXER-HEATSYS1 DEMAND OUTLET PIPE,HEATSYS1,Demand
     Plant Loop Connector Branches,2,Mixer,HEATSYS1 DEMAND MIXER,HEATSYS1 DEMAND LOAD BRANCH 2,HEATSYS1 DEMAND OUTLET BRANCH,HEATSYS1,Demand
     Plant Loop Connector Nodes,   2,Mixer,HEATSYS1 DEMAND MIXER,ZN_1_FLR_1_SEC_2 VAV BOX REHEAT COILDEMAND OUTLET NODE,HEATSYS1 DEMAND MIXER-HEATSYS1 DEMAND OUTLET PIPE,HEATSYS1,Demand
     Plant Loop Connector Branches,3,Mixer,HEATSYS1 DEMAND MIXER,HEATSYS1 DEMAND LOAD BRANCH 3,HEATSYS1 DEMAND OUTLET BRANCH,HEATSYS1,Demand
     Plant Loop Connector Nodes,   3,Mixer,HEATSYS1 DEMAND MIXER,ZN_1_FLR_1_SEC_3 VAV BOX REHEAT COILDEMAND OUTLET NODE,HEATSYS1 DEMAND MIXER-HEATSYS1 DEMAND OUTLET PIPE,HEATSYS1,Demand
     Plant Loop Connector Branches,4,Mixer,HEATSYS1 DEMAND MIXER,HEATSYS1 DEMAND LOAD BRANCH 4,HEATSYS1 DEMAND OUTLET BRANCH,HEATSYS1,Demand
     Plant Loop Connector Nodes,   4,Mixer,HEATSYS1 DEMAND MIXER,ZN_1_FLR_1_SEC_4 VAV BOX REHEAT COILDEMAND OUTLET NODE,HEATSYS1 DEMAND MIXER-HEATSYS1 DEMAND OUTLET PIPE,HEATSYS1,Demand
     Plant Loop Connector Branches,5,Mixer,HEATSYS1 DEMAND MIXER,HEATSYS1 DEMAND LOAD BRANCH 5,HEATSYS1 DEMAND OUTLET BRANCH,HEATSYS1,Demand
     Plant Loop Connector Nodes,   5,Mixer,HEATSYS1 DEMAND MIXER,ZN_1_FLR_1_SEC_5 VAV BOX REHEAT COILDEMAND OUTLET NODE,HEATSYS1 DEMAND MIXER-HEATSYS1 DEMAND OUTLET PIPE,HEATSYS1,Demand
     Plant Loop Connector Branches,6,Mixer,HEATSYS1 DEMAND MIXER,HEATSYS1 DEMAND LOAD BRANCH 6,HEATSYS1 DEMAND OUTLET BRANCH,HEATSYS1,Demand
     Plant Loop Connector Nodes,   6,Mixer,HEATSYS1 DEMAND MIXER,VAV WITH REHEAT_HEATCDEMAND OUTLET NODE,HEATSYS1 DEMAND MIXER-HEATSYS1 DEMAND OUTLET PIPE,HEATSYS1,Demand
     Plant Loop Connector Branches,7,Mixer,HEATSYS1 DEMAND MIXER,HEATSYS1 DEMAND BYPASS BRANCH,HEATSYS1 DEMAND OUTLET BRANCH,HEATSYS1,Demand
     Plant Loop Connector Nodes,   7,Mixer,HEATSYS1 DEMAND MIXER,HEATSYS1 DEMAND BYPASS PIPE OUTLET NODE,HEATSYS1 DEMAND MIXER-HEATSYS1 DEMAND OUTLET PIPE,HEATSYS1,Demand
 Plant Loop,HEATSYS1,Supply,HEATSYS1 SUPPLY INLET NODE,HEATSYS1 SUPPLY OUTLET NODE,HEATSYS1 SUPPLY BRANCHES,HEATSYS1 SUPPLY CONNECTORS
   Plant Loop Connector,Splitter,HEATSYS1 SUPPLY SPLITTER,HEATSYS1,Supply,2
     Plant Loop Connector Branches,1,Splitter,HEATSYS1 SUPPLY SPLITTER,HEATSYS1 SUPPLY INLET BRANCH,HEATSYS1 SUPPLY EQUIPMENT BRANCH,HEATSYS1,Supply
     Plant Loop Connector Nodes,   1,Splitter,HEATSYS1 SUPPLY SPLITTER,HEATSYS1 PUMP-HEATSYS1 BOILERNODEVIACONNECTOR,HEATSYS1 PUMP-HEATSYS1 BOILERNODE,HEATSYS1,Supply
     Plant Loop Connector Branches,2,Splitter,HEATSYS1 SUPPLY SPLITTER,HEATSYS1 SUPPLY INLET BRANCH,HEATSYS1 SUPPLY EQUIPMENT BYPASS BRANCH,HEATSYS1,Supply
     Plant Loop Connector Nodes,   2,Splitter,HEATSYS1 SUPPLY SPLITTER,HEATSYS1 PUMP-HEATSYS1 BOILERNODEVIACONNECTOR,HEATSYS1 SUPPLY EQUIP BYPASS INLET NODE,HEATSYS1,Supply
   Plant Loop Connector,Mixer,HEATSYS1 SUPPLY MIXER,HEATSYS1,Supply,2
     Plant Loop Connector Branches,1,Mixer,HEATSYS1 SUPPLY MIXER,HEATSYS1 SUPPLY EQUIPMENT BRANCH,HEATSYS1 SUPPLY OUTLET BRANCH,HEATSYS1,Supply
     Plant Loop Connector Nodes,   1,Mixer,HEATSYS1 SUPPLY MIXER,HEATSYS1 SUPPLY EQUIPMENT OUTLET NODE,HEATSYS1 SUPPLY MIXER-HEATSYS1 SUPPLY OUTLET PIPE,HEATSYS1,Supply
     Plant Loop Connector Branches,2,Mixer,HEATSYS1 SUPPLY MIXER,HEATSYS1 SUPPLY EQUIPMENT BYPASS BRANCH,HEATSYS1 SUPPLY OUTLET BRANCH,HEATSYS1,Supply
     Plant Loop Connector Nodes,   2,Mixer,HEATSYS1 SUPPLY MIXER,HEATSYS1 SUPPLY EQUIP BYPASS OUTLET NODE,HEATSYS1 SUPPLY MIXER-HEATSYS1 SUPPLY OUTLET PIPE,HEATSYS1,Supply
 Plant Loop Supply Connection,HEATSYS1,HEATSYS1 SUPPLY OUTLET NODE,HEATSYS1 DEMAND INLET NODE
 Plant Loop Return Connection,HEATSYS1,HEATSYS1 DEMAND OUTLET NODE,HEATSYS1 SUPPLY INLET NODE
 Plant Loop,COOLSYSPRIMARY,Demand,COOLSYSPRIMARY DEMAND INLET NODE,COOLSYSPRIMARY DEMAND OUTLET NODE,COOLSYSPRIMARY DEMAND BRANCHES,COOLSYSPRIMARY DEMAND CONNECTORS
   Plant Loop Connector,Splitter,COOLSYSPRIMARY DEMAND SPLITTER,COOLSYSPRIMARY,Demand,2
     Plant Loop Connector Branches,1,Splitter,COOLSYSPRIMARY DEMAND SPLITTER,COOLSYSPRIMARY DEMAND INLET BRANCH,COOLSYSPRIMARY CW STORAGE CHARGE BRANCH,COOLSYSPRIMARY,Demand
     Plant Loop Connector Nodes,   1,Splitter,COOLSYSPRIMARY DEMAND SPLITTER,COOLSYSPRIMARY DEMAND INLET PIPE-COOLSYSPRIMARY DEMAND MIXER,CW TANK CHARGE INLET NODE,COOLSYSPRIMARY,Demand
     Plant Loop Connector Branches,2,Splitter,COOLSYSPRIMARY DEMAND SPLITTER,COOLSYSPRIMARY DEMAND INLET BRANCH,COOLSYSPRIMARY DEMAND BYPASS BRANCH,COOLSYSPRIMARY,Demand
     Plant Loop Connector Nodes,   2,Splitter,COOLSYSPRIMARY DEMAND SPLITTER,COOLSYSPRIMARY DEMAND INLET PIPE-COOLSYSPRIMARY DEMAND MIXER,COOLSYSPRIMARY DEMAND BYPASS PIPE INLET NODE,COOLSYSPRIMARY,Demand
   Plant Loop Connector,Mixer,COOLSYSPRIMARY DEMAND MIXER,COOLSYSPRIMARY,Demand,2
     Plant Loop Connector Branches,1,Mixer,COOLSYSPRIMARY DEMAND MIXER,COOLSYSPRIMARY CW STORAGE CHARGE BRANCH,COOLSYSPRIMARY DEMAND OUTLET BRANCH,COOLSYSPRIMARY,Demand
     Plant Loop Connector Nodes,   1,Mixer,COOLSYSPRIMARY DEMAND MIXER,CW TANK CHARGE OUTLET NODE,COOLSYSPRIMARY DEMAND MIXER-COOLSYSPRIMARY DEMAND OUTLET PIPE,COOLSYSPRIMARY,Demand
     Plant Loop Connector Branches,2,Mixer,COOLSYSPRIMARY DEMAND MIXER,COOLSYSPRIMARY DEMAND BYPASS BRANCH,COOLSYSPRIMARY DEMAND OUTLET BRANCH,COOLSYSPRIMARY,Demand
     Plant Loop Connector Nodes,   2,Mixer,COOLSYSPRIMARY DEMAND MIXER,COOLSYSPRIMARY DEMAND BYPASS PIPE OUTLET NODE,COOLSYSPRIMARY DEMAND MIXER-COOLSYSPRIMARY DEMAND OUTLET PIPE,COOLSYSPRIMARY,Demand
 Plant Loop,COOLSYSPRIMARY,Supply,COOLSYSPRIMARY SUPPLY INLET NODE,COOLSYSPRIMARY SUPPLY OUTLET NODE,COOLSYSPRIMARY SUPPLY BRANCHES,COOLSYSPRIMARY SUPPLY CONNECTORS
   Plant Loop Connector,Splitter,COOLSYSPRIMARY SUPPLY SPLITTER,COOLSYSPRIMARY,Supply,2
     Plant Loop Connector Branches,1,Splitter,COOLSYSPRIMARY SUPPLY SPLITTER,COOLSYSPRIMARY SUPPLY INLET BRANCH,COOLSYSPRIMARY SUPPLY EQUIPMENT BRANCH,COOLSYSPRIMARY,Supply
     Plant Loop Connector Nodes,   1,Splitter,COOLSYSPRIMARY SUPPLY SPLITTER,COOLSYSPRIMARY PUMP-COOLSYSPRIMARY CHILLERNODEVIACONNECTOR,COOLSYSPRIMARY PUMP-COOLSYSPRIMARY CHILLERNODE,COOLSYSPRIMARY,Supply
     Plant Loop Connector Branches,2,Splitter,COOLSYSPRIMARY SUPPLY SPLITTER,COOLSYSPRIMARY SUPPLY INLET BRANCH,COOLSYSPRIMARY SUPPLY EQUIPMENT BYPASS BRANCH,COOLSYSPRIMARY,Supply
     Plant Loop Connector Nodes,   2,Splitter,COOLSYSPRIMARY SUPPLY SPLITTER,COOLSYSPRIMARY PUMP-COOLSYSPRIMARY CHILLERNODEVIACONNECTOR,COOLSYSPRIMARY SUPPLY EQUIP BYPASS INLET NODE,COOLSYSPRIMARY,Supply
   Plant Loop Connector,Mixer,COOLSYSPRIMARY SUPPLY MIXER,COOLSYSPRIMARY,Supply,2
     Plant Loop Connector Branches,1,Mixer,COOLSYSPRIMARY SUPPLY MIXER,COOLSYSPRIMARY SUPPLY EQUIPMENT BRANCH,COOLSYSPRIMARY SUPPLY OUTLET BRANCH,COOLSYSPRIMARY,Supply
     Plant Loop Connector Nodes,   1,Mixer,COOLSYSPRIMARY SUPPLY MIXER,COOLSYSPRIMARY SUPPLY EQUIPMENT OUTLET NODE,COOLSYSPRIMARY SUPPLY MIXER-COOLSYSPRIMARY SUPPLY OUTLET PIPE,COOLSYSPRIMARY,Supply
     Plant Loop Connector Branches,2,Mixer,COOLSYSPRIMARY SUPPLY MIXER,COOLSYSPRIMARY SUPPLY EQUIPMENT BYPASS BRANCH,COOLSYSPRIMARY SUPPLY OUTLET BRANCH,COOLSYSPRIMARY,Supply
     Plant Loop Connector Nodes,   2,Mixer,COOLSYSPRIMARY SUPPLY MIXER,COOLSYSPRIMARY SUPPLY EQUIP BYPASS OUTLET NODE,COOLSYSPRIMARY SUPPLY MIXER-COOLSYSPRIMARY SUPPLY OUTLET PIPE,COOLSYSPRIMARY,Supply
 Plant Loop Supply Connection,COOLSYSPRIMARY,COOLSYSPRIMARY SUPPLY OUTLET NODE,COOLSYSPRIMARY DEMAND INLET NODE
 Plant Loop Return Connection,COOLSYSPRIMARY,COOLSYSPRIMARY DEMAND OUTLET NODE,COOLSYSPRIMARY SUPPLY INLET NODE
 Plant Loop,COOLSYSSECONDARY,Demand,COOLSYSSECONDARY DEMAND INLET NODE,COOLSYSSECONDARY DEMAND OUTLET NODE,COOLSYSSECONDARY DEMAND BRANCHES,COOLSYSSECONDARY DEMAND CONNECTORS
   Plant Loop Connector,Splitter,COOLSYSSECONDARY DEMAND SPLITTER,COOLSYSSECONDARY,Demand,2
     Plant Loop Connector Branches,1,Splitter,COOLSYSSECONDARY DEMAND SPLITTER,COOLSYSSECONDARY DEMAND INLET BRANCH,COOLSYSSECONDARY DEMAND LOAD BRANCH 1,COOLSYSSECONDARY,Demand
     Plant Loop Connector Nodes,   1,Splitter,COOLSYSSECONDARY DEMAND SPLITTER,COOLSYSSECONDARY DEMAND INLET PIPE-COOLSYSSECONDARY DEMAND MIXER,VAV WITH REHEAT_COOLCDEMAND INLET NODE,COOLSYSSECONDARY,Demand
     Plant Loop Connector Branches,2,Splitter,COOLSYSSECONDARY DEMAND SPLITTER,COOLSYSSECONDARY DEMAND INLET BRANCH,COOLSYSSECONDARY DEMAND BYPASS BRANCH,COOLSYSSECONDARY,Demand
     Plant Loop Connector Nodes,   2,Splitter,COOLSYSSECONDARY DEMAND SPLITTER,COOLSYSSECONDARY DEMAND INLET PIPE-COOLSYSSECONDARY DEMAND MIXER,COOLSYSSECONDARY DEMAND BYPASS PIPE INLET NODE,COOLSYSSECONDARY,Demand
   Plant Loop Connector,Mixer,COOLSYSSECONDARY DEMAND MIXER,COOLSYSSECONDARY,Demand,2
     Plant Loop Connector Branches,1,Mixer,COOLSYSSECONDARY DEMAND MIXER,COOLSYSSECONDARY DEMAND LOAD BRANCH 1,COOLSYSSECONDARY DEMAND OUTLET BRANCH,COOLSYSSECONDARY,Demand
     Plant Loop Connector Nodes,   1,Mixer,COOLSYSSECONDARY DEMAND MIXER,VAV WITH REHEAT_COOLCDEMAND OUTLET NODE,COOLSYSSECONDARY DEMAND MIXER-COOLSYSSECONDARY DEMAND OUTLET PIPE,COOLSYSSECONDARY,Demand
     Plant Loop Connector Branches,2,Mixer,COOLSYSSECONDARY DEMAND MIXER,COOLSYSSECONDARY DEMAND BYPASS BRANCH,COOLSYSSECONDARY DEMAND OUTLET BRANCH,COOLSYSSECONDARY,Demand
     Plant Loop Connector Nodes,   2,Mixer,COOLSYSSECONDARY DEMAND MIXER,COOLSYSSECONDARY DEMAND BYPASS PIPE OUTLET NODE,COOLSYSSECONDARY DEMAND MIXER-COOLSYSSECONDARY DEMAND OUTLET PIPE,COOLSYSSECONDARY,Demand
 Plant Loop,COOLSYSSECONDARY,Supply,COOLSYSSECONDARY SUPPLY INLET NODE,COOLSYSSECONDARY SUPPLY OUTLET NODE,COOLSYSSECONDARY SUPPLY BRANCHES,COOLSYSSECONDARY SUPPLY CONNECTORS
   Plant Loop Connector,Splitter,COOLSYSSECONDARY SUPPLY SPLITTER,COOLSYSSECONDARY,Supply,3
     Plant Loop Connector Branches,1,Splitter,COOLSYSSECONDARY SUPPLY SPLITTER,COOLSYSSECONDARY SUPPLY INLET BRANCH,COOLSYSSECONDARY SUPPLY EQUIPMENT BRANCH,COOLSYSSECONDARY,Supply
     Plant Loop Connector Nodes,   1,Splitter,COOLSYSSECONDARY SUPPLY SPLITTER,COOLSYSSECONDARY PUMP-COOLSYSSECONDARY CHILLERNODEVIACONNECTOR,COOLSYSSECONDARY PUMP-COOLSYSSECONDARY CHILLERNODE,COOLSYSSECONDARY,Supply
     Plant Loop Connector Branches,2,Splitter,COOLSYSSECONDARY SUPPLY SPLITTER,COOLSYSSECONDARY SUPPLY INLET BRANCH,COOLSYSSECONDARY SUPPLY CW STORAGE DISCHARGE BRANCH,COOLSYSSECONDARY,Supply
     Plant Loop Connector Nodes,   2,Splitter,COOLSYSSECONDARY SUPPLY SPLITTER,COOLSYSSECONDARY PUMP-COOLSYSSECONDARY CHILLERNODEVIACONNECTOR,CW TANK DISCHARGE INLET NODE,COOLSYSSECONDARY,Supply
     Plant Loop Connector Branches,3,Splitter,COOLSYSSECONDARY SUPPLY SPLITTER,COOLSYSSECONDARY SUPPLY INLET BRANCH,COOLSYSSECONDARY SUPPLY EQUIPMENT BYPASS BRANCH,COOLSYSSECONDARY,Supply
     Plant Loop Connector Nodes,   3,Splitter,COOLSYSSECONDARY SUPPLY SPLITTER,COOLSYSSECONDARY PUMP-COOLSYSSECONDARY CHILLERNODEVIACONNECTOR,COOLSYSSECONDARY SUPPLY EQUIP BYPASS INLET NODE,COOLSYSSECONDARY,Supply
   Plant Loop Connector,Mixer,COOLSYSSECONDARY SUPPLY MIXER,COOLSYSSECONDARY,Supply,3
     Plant Loop Connector Branches,1,Mixer,COOLSYSSECONDARY SUPPLY MIXER,COOLSYSSECONDARY SUPPLY EQUIPMENT BRANCH,COOLSYSSECONDARY SUPPLY OUTLET BRANCH,COOLSYSSECONDARY,Supply
     Plant Loop Connector Nodes,   1,Mixer,COOLSYSSECONDARY SUPPLY MIXER,COOLSYSSECONDARY SUPPLY EQUIPMENT OUTLET NODE,COOLSYSSECONDARY SUPPLY MIXER-COOLSYSSECONDARY SUPPLY OUTLET PIPE,COOLSYSSECONDARY,Supply
     Plant Loop Connector Branches,2,Mixer,COOLSYSSECONDARY SUPPLY MIXER,COOLSYSSECONDARY SUPPLY CW STORAGE DISCHARGE BRANCH,COOLSYSSECONDARY SUPPLY OUTLET BRANCH,COOLSYSSECONDARY,Supply
     Plant Loop Connector Nodes,   2,Mixer,COOLSYSSECONDARY SUPPLY MIXER,CW TANK DISCHARGE OUTLET NODE,COOLSYSSECONDARY SUPPLY MIXER-COOLSYSSECONDARY SUPPLY OUTLET PIPE,COOLSYSSECONDARY,Supply
     Plant Loop Connector Branches,3,Mixer,COOLSYSSECONDARY SUPPLY MIXER,COOLSYSSECONDARY SUPPLY EQUIPMENT BYPASS BRANCH,COOLSYSSECONDARY SUPPLY OUTLET BRANCH,COOLSYSSECONDARY,Supply
     Plant Loop Connector Nodes,   3,Mixer,COOLSYSSECONDARY SUPPLY MIXER,COOLSYSSECONDARY SUPPLY EQUIP BYPASS OUTLET NODE,COOLSYSSECONDARY SUPPLY MIXER-COOLSYSSECONDARY SUPPLY OUTLET PIPE,COOLSYSSECONDARY,Supply
 Plant Loop Supply Connection,COOLSYSSECONDARY,COOLSYSSECONDARY SUPPLY OUTLET NODE,COOLSYSSECONDARY DEMAND INLET NODE
 Plant Loop Return Connection,COOLSYSSECONDARY,COOLSYSSECONDARY DEMAND OUTLET NODE,COOLSYSSECONDARY SUPPLY INLET NODE
! ===============================================================
! <# Condenser Loops>,<Number of Condenser Loops>
 #Condenser Loops,1
! <Condenser Loop>,<Condenser Loop Name>,<Loop Type>,<Inlet Node Name>,<Outlet Node Name>,<Branch List>,<Connector List>
! <Condenser Loop Connector>,<Connector Type>,<Connector Name>,<Loop Name>,<Loop Type>,<Number of Inlets/Outlets>
! <Condenser Loop Connector Branches>,<Connector Node Count>,<Connector Type>,<Connector Name>,<Inlet Branch>,<Outlet Branch>,<Loop Name>,<Loop Type>
! <Condenser Loop Connector Nodes>,<Connector Node Count>,<Connector Type>,<Connector Name>,<Inlet Node>,<Outlet Node>,<Loop Name>,<Loop Type>
! <Condenser Loop Supply Connection>,<Condenser Loop Name>,<Supply Side Outlet Node Name>,<Demand Side Inlet Node Name>
! <Condenser Loop Return Connection>,<Condenser Loop Name>,<Demand Side Outlet Node Name>,<Supply Side Inlet Node Name>
 Plant Loop,TOWERWATERSYS,Demand,TOWERWATERSYS DEMAND INLET NODE,TOWERWATERSYS DEMAND OUTLET NODE,TOWERWATERSYS DEMAND BRANCHES,TOWERWATERSYS DEMAND CONNECTORS
   Plant Loop Connector,Splitter,TOWERWATERSYS DEMAND SPLITTER,TOWERWATERSYS,Demand,3
     Plant Loop Connector Branches,1,Splitter,TOWERWATERSYS DEMAND SPLITTER,TOWERWATERSYS DEMAND INLET BRANCH,TOWERWATERSYS DEMAND LOAD BRANCH 1,TOWERWATERSYS,Demand
     Plant Loop Connector Nodes,   1,Splitter,TOWERWATERSYS DEMAND SPLITTER,TOWERWATERSYS DEMAND INLET PIPE-TOWERWATERSYS DEMAND MIXER,COOLSYSSECONDARY CHILLER WATER INLET NODE,TOWERWATERSYS,Demand
     Plant Loop Connector Branches,2,Splitter,TOWERWATERSYS DEMAND SPLITTER,TOWERWATERSYS DEMAND INLET BRANCH,TOWERWATERSYS DEMAND LOAD BRANCH 2,TOWERWATERSYS,Demand
     Plant Loop Connector Nodes,   2,Splitter,TOWERWATERSYS DEMAND SPLITTER,TOWERWATERSYS DEMAND INLET PIPE-TOWERWATERSYS DEMAND MIXER,COOLSYSPRIMARY CHILLER WATER INLET NODE,TOWERWATERSYS,Demand
     Plant Loop Connector Branches,3,Splitter,TOWERWATERSYS DEMAND SPLITTER,TOWERWATERSYS DEMAND INLET BRANCH,TOWERWATERSYS DEMAND BYPASS BRANCH,TOWERWATERSYS,Demand
     Plant Loop Connector Nodes,   3,Splitter,TOWERWATERSYS DEMAND SPLITTER,TOWERWATERSYS DEMAND INLET PIPE-TOWERWATERSYS DEMAND MIXER,TOWERWATERSYS DEMAND BYPASS PIPE INLET NODE,TOWERWATERSYS,Demand
   Plant Loop Connector,Mixer,TOWERWATERSYS DEMAND MIXER,TOWERWATERSYS,Demand,3
     Plant Loop Connector Branches,1,Mixer,TOWERWATERSYS DEMAND MIXER,TOWERWATERSYS DEMAND LOAD BRANCH 1,TOWERWATERSYS DEMAND OUTLET BRANCH,TOWERWATERSYS,Demand
     Plant Loop Connector Nodes,   1,Mixer,TOWERWATERSYS DEMAND MIXER,COOLSYSSECONDARY CHILLER WATER OUTLET NODE,TOWERWATERSYS DEMAND MIXER-TOWERWATERSYS DEMAND OUTLET PIPE,TOWERWATERSYS,Demand
     Plant Loop Connector Branches,2,Mixer,TOWERWATERSYS DEMAND MIXER,TOWERWATERSYS DEMAND LOAD BRANCH 2,TOWERWATERSYS DEMAND OUTLET BRANCH,TOWERWATERSYS,Demand
     Plant Loop Connector Nodes,   2,Mixer,TOWERWATERSYS DEMAND MIXER,COOLSYSPRIMARY CHILLER WATER OUTLET NODE,TOWERWATERSYS DEMAND MIXER-TOWERWATERSYS DEMAND OUTLET PIPE,TOWERWATERSYS,Demand
     Plant Loop Connector Branches,3,Mixer,TOWERWATERSYS DEMAND MIXER,TOWERWATERSYS DEMAND BYPASS BRANCH,TOWERWATERSYS DEMAND OUTLET BRANCH,TOWERWATERSYS,Demand
     Plant Loop Connector Nodes,   3,Mixer,TOWERWATERSYS DEMAND MIXER,TOWERWATERSYS DEMAND BYPASS PIPE OUTLET NODE,TOWERWATERSYS DEMAND MIXER-TOWERWATERSYS DEMAND OUTLET PIPE,TOWERWATERSYS,Demand
 Plant Loop,TOWERWATERSYS,Supply,TOWERWATERSYS SUPPLY INLET NODE,TOWERWATERSYS SUPPLY OUTLET NODE,TOWERWATERSYS SUPPLY BRANCHES,TOWERWATERSYS SUPPLY CONNECTORS
   Plant Loop Connector,Splitter,TOWERWATERSYS SUPPLY SPLITTER,TOWERWATERSYS,Supply,2
     Plant Loop Connector Branches,1,Splitter,TOWERWATERSYS SUPPLY SPLITTER,TOWERWATERSYS SUPPLY INLET BRANCH,TOWERWATERSYS SUPPLY EQUIPMENT BRANCH,TOWERWATERSYS,Supply
     Plant Loop Connector Nodes,   1,Splitter,TOWERWATERSYS SUPPLY SPLITTER,TOWERWATERSYS PUMP-TOWERWATERSYS COOLTOWERNODEVIACONNECTOR,TOWERWATERSYS PUMP-TOWERWATERSYS COOLTOWERNODE,TOWERWATERSYS,Supply
     Plant Loop Connector Branches,2,Splitter,TOWERWATERSYS SUPPLY SPLITTER,TOWERWATERSYS SUPPLY INLET BRANCH,TOWERWATERSYS SUPPLY EQUIPMENT BYPASS BRANCH,TOWERWATERSYS,Supply
     Plant Loop Connector Nodes,   2,Splitter,TOWERWATERSYS SUPPLY SPLITTER,TOWERWATERSYS PUMP-TOWERWATERSYS COOLTOWERNODEVIACONNECTOR,TOWERWATERSYS SUPPLY EQUIP BYPASS INLET NODE,TOWERWATERSYS,Supply
   Plant Loop Connector,Mixer,TOWERWATERSYS SUPPLY MIXER,TOWERWATERSYS,Supply,2
     Plant Loop Connector Branches,1,Mixer,TOWERWATERSYS SUPPLY MIXER,TOWERWATERSYS SUPPLY EQUIPMENT BRANCH,TOWERWATERSYS SUPPLY OUTLET BRANCH,TOWERWATERSYS,Supply
     Plant Loop Connector Nodes,   1,Mixer,TOWERWATERSYS SUPPLY MIXER,TOWERWATERSYS SUPPLY EQUIPMENT OUTLET NODE,TOWERWATERSYS SUPPLY MIXER-TOWERWATERSYS SUPPLY OUTLET PIPE,TOWERWATERSYS,Supply
     Plant Loop Connector Branches,2,Mixer,TOWERWATERSYS SUPPLY MIXER,TOWERWATERSYS SUPPLY EQUIPMENT BYPASS BRANCH,TOWERWATERSYS SUPPLY OUTLET BRANCH,TOWERWATERSYS,Supply
     Plant Loop Connector Nodes,   2,Mixer,TOWERWATERSYS SUPPLY MIXER,TOWERWATERSYS SUPPLY EQUIP BYPASS OUTLET NODE,TOWERWATERSYS SUPPLY MIXER-TOWERWATERSYS SUPPLY OUTLET PIPE,TOWERWATERSYS,Supply
 Plant Loop Supply Connection,TOWERWATERSYS,TOWERWATERSYS SUPPLY OUTLET NODE,TOWERWATERSYS DEMAND INLET NODE
 Plant Loop Return Connection,TOWERWATERSYS,TOWERWATERSYS DEMAND OUTLET NODE,TOWERWATERSYS SUPPLY INLET NODE
! ===============================================================
! <# Controlled Zones>,<Number of Controlled Zones>
 #Controlled Zones,5
! <Controlled Zone>,<Controlled Zone Name>,<Equip List Name>,<Control List Name>,<Zone Node Name>,<# Inlet Nodes>,<# Exhaust Nodes>,<# Return Nodes>
! <Controlled Zone Inlet>,<Inlet Node Count>,<Controlled Zone Name>,<Supply Air Inlet Node Name>,<SD Sys:Cooling/Heating [DD:Cooling] Inlet Node Name>,<DD Sys:Heating Inlet Node Name>
! <Controlled Zone Exhaust>,<Exhaust Node Count>,<Controlled Zone Name>,<Exhaust Air Node Name>
 Controlled Zone,ZN_1_FLR_1_SEC_1,ZN_1_FLR_1_SEC_1 EQUIPMENT,,ZN_1_FLR_1_SEC_1 AIR NODE,1,1,1
   Controlled Zone Inlet,1,ZN_1_FLR_1_SEC_1,ZN_1_FLR_1_SEC_1 VAV BOX OUTLET NODE,ZN_1_FLR_1_SEC_1 VAV BOX INLET NODE,N/A
   Controlled Zone Exhaust,1,ZN_1_FLR_1_SEC_1,ZN_1_FLR_1_SEC_1 EXHAUST NODE
   Controlled Zone Return,1,ZN_1_FLR_1_SEC_1,ZN_1_FLR_1_SEC_1 RETURN AIR NODE
 Controlled Zone,ZN_1_FLR_1_SEC_2,ZN_1_FLR_1_SEC_2 EQUIPMENT,,ZN_1_FLR_1_SEC_2 AIR NODE,1,0,1
   Controlled Zone Inlet,1,ZN_1_FLR_1_SEC_2,ZN_1_FLR_1_SEC_2 VAV BOX OUTLET NODE,ZN_1_FLR_1_SEC_2 VAV BOX INLET NODE,N/A
   Controlled Zone Return,1,ZN_1_FLR_1_SEC_2,ZN_1_FLR_1_SEC_2 RETURN AIR NODE
 Controlled Zone,ZN_1_FLR_1_SEC_3,ZN_1_FLR_1_SEC_3 EQUIPMENT,,ZN_1_FLR_1_SEC_3 AIR NODE,1,0,1
   Controlled Zone Inlet,1,ZN_1_FLR_1_SEC_3,ZN_1_FLR_1_SEC_3 VAV BOX OUTLET NODE,ZN_1_FLR_1_SEC_3 VAV BOX INLET NODE,N/A
   Controlled Zone Return,1,ZN_1_FLR_1_SEC_3,ZN_1_FLR_1_SEC_3 RETURN AIR NODE
 Controlled Zone,ZN_1_FLR_1_SEC_4,ZN_1_FLR_1_SEC_4 EQUIPMENT,,ZN_1_FLR_1_SEC_4 AIR NODE,1,0,1
   Controlled Zone Inlet,1,ZN_1_FLR_1_SEC_4,ZN_1_FLR_1_SEC_4 VAV BOX OUTLET NODE,ZN_1_FLR_1_SEC_4 VAV BOX INLET NODE,N/A
   Controlled Zone Return,1,ZN_1_FLR_1_SEC_4,ZN_1_FLR_1_SEC_4 RETURN AIR NODE
 Controlled Zone,ZN_1_FLR_1_SEC_5,ZN_1_FLR_1_SEC_5 EQUIPMENT,,ZN_1_FLR_1_SEC_5 AIR NODE,1,0,1
   Controlled Zone Inlet,1,ZN_1_FLR_1_SEC_5,ZN_1_FLR_1_SEC_5 VAV BOX OUTLET NODE,ZN_1_FLR_1_SEC_5 VAV BOX INLET NODE,N/A
   Controlled Zone Return,1,ZN_1_FLR_1_SEC_5,ZN_1_FLR_1_SEC_5 RETURN AIR NODE
! ===============================================================
! <#Zone Equipment Lists>,<Number of Zone Equipment Lists>
 #Zone Equipment Lists,5
! <Zone Equipment List>,<Zone Equipment List Count>,<Zone Equipment List Name>,<Zone Name>,<Number of Components>
! <Zone Equipment Component>,<Component Count>,<Component Type>,<Component Name>,<Zone Name>,<Heating Priority>,<Cooling Priority>
 Zone Equipment List,1,ZN_1_FLR_1_SEC_1 EQUIPMENT,ZN_1_FLR_1_SEC_1,1
   Zone Equipment Component,1,ZONEHVAC:AIRDISTRIBUTIONUNIT,ZN_1_FLR_1_SEC_1 VAV BOX,ZN_1_FLR_1_SEC_1,1,1
 Zone Equipment List,2,ZN_1_FLR_1_SEC_2 EQUIPMENT,ZN_1_FLR_1_SEC_2,1
   Zone Equipment Component,1,ZONEHVAC:AIRDISTRIBUTIONUNIT,ZN_1_FLR_1_SEC_2 VAV BOX,ZN_1_FLR_1_SEC_2,1,1
 Zone Equipment List,3,ZN_1_FLR_1_SEC_3 EQUIPMENT,ZN_1_FLR_1_SEC_3,1
   Zone Equipment Component,1,ZONEHVAC:AIRDISTRIBUTIONUNIT,ZN_1_FLR_1_SEC_3 VAV BOX,ZN_1_FLR_1_SEC_3,1,1
 Zone Equipment List,4,ZN_1_FLR_1_SEC_4 EQUIPMENT,ZN_1_FLR_1_SEC_4,1
   Zone Equipment Component,1,ZONEHVAC:AIRDISTRIBUTIONUNIT,ZN_1_FLR_1_SEC_4 VAV BOX,ZN_1_FLR_1_SEC_4,1,1
 Zone Equipment List,5,ZN_1_FLR_1_SEC_5 EQUIPMENT,ZN_1_FLR_1_SEC_5,1
   Zone Equipment Component,1,ZONEHVAC:AIRDISTRIBUTIONUNIT,ZN_1_FLR_1_SEC_5 VAV BOX,ZN_1_FLR_1_SEC_5,1,1
! ===============================================================
! <#AirLoopHVACs>,<Number of AirLoopHVACs>
 #AirLoopHVACs,1
! <AirLoopHVAC>,<Air Loop Name>,<# Return Nodes>,<# Supply Nodes>,<# Zones Cooled>,<# Zones Heated>,<Outdoor Air Used>
! <AirLoop Return Connections>,<Connection Count>,<AirLoopHVAC Name>,<Zn Eqp Return Node #>,<Zn Eqp Return Node Name>,<AirLoop Return Node #>,<Air Loop Return Node Name>
! <AirLoop Supply Connections>,<Connection Count>,<AirLoopHVAC Name>,<Zn Eqp Supply Node #>,<Zn Eqp Supply Node Name>,<AirLoop Supply Node #>,<Air Loop Supply Node Name>
! <Cooled Zone Info>,<Cooled Zone Count>,<Cooled Zone Name>,<Cooled Zone Inlet Node #>,<Cooled Zone Inlet Node Name>,<AirLoopHVAC Name>
! <Heated Zone Info>,<Heated Zone Count>,<Heated Zone Name>,<Heated Zone Inlet Node #>,<Heated Zone Inlet Node Name>,<AirLoopHVAC Name>
! <Outdoor Air Connections>,<OA Inlet Node #>,<OA Return Air Inlet Node Name>,<OA Outlet Node #>,<OA Mixed Air Outlet Node Name>,<AirLoopHVAC Name>
! <AirLoopHVAC Connector>,<Connector Type>,<Connector Name>,<Loop Name>,<Loop Type>,<Number of Inlets/Outlets>
! <AirLoopHVAC Connector Branches>,<Connector Node Count>,<Connector Type>,<Connector Name>,<Inlet Branch>,<Outlet Branch>,<Loop Name>,<Loop Type>
! <AirLoopHVAC Connector Nodes>,<Connector Node Count>,<Connector Type>,<Connector Name>,<Inlet Node>,<Outlet Node>,<Loop Name>,<Loop Type>
 AirLoopHVAC,VAV WITH REHEAT,1,1,5,0,Yes
   AirLoop Return Connections,1,VAV WITH REHEAT,126,VAV WITH REHEAT ZONE EQUIPMENT OUTLET NODE,8,VAV WITH REHEAT SUPPLY EQUIPMENT INLET NODE
   AirLoop Supply Connections,1,VAV WITH REHEAT,125,VAV WITH REHEAT ZONE EQUIPMENT INLET NODE,12,VAV WITH REHEAT SUPPLY EQUIPMENT OUTLET NODE
   Cooled Zone Info,1,ZN_1_FLR_1_SEC_1,1,ZN_1_FLR_1_SEC_1 VAV BOX OUTLET NODE,VAV WITH REHEAT
   Cooled Zone Info,2,ZN_1_FLR_1_SEC_2,3,ZN_1_FLR_1_SEC_2 VAV BOX OUTLET NODE,VAV WITH REHEAT
   Cooled Zone Info,3,ZN_1_FLR_1_SEC_3,4,ZN_1_FLR_1_SEC_3 VAV BOX OUTLET NODE,VAV WITH REHEAT
   Cooled Zone Info,4,ZN_1_FLR_1_SEC_4,5,ZN_1_FLR_1_SEC_4 VAV BOX OUTLET NODE,VAV WITH REHEAT
   Cooled Zone Info,5,ZN_1_FLR_1_SEC_5,6,ZN_1_FLR_1_SEC_5 VAV BOX OUTLET NODE,VAV WITH REHEAT
   Outdoor Air Connections,8,VAV WITH REHEAT SUPPLY EQUIPMENT INLET NODE,9,VAV WITH REHEAT_OA-VAV WITH REHEAT_COOLCNODE,VAV WITH REHEAT
! ===============================================================
! <#Parent Node Connections>,<Number of Parent Node Connections>
 #Parent Node Connections,151
! <Parent Node Connection>,<Node Name>,<Node ObjectType>,<Node ObjectName>,<Node ConnectionType>,<Node FluidStream>
 Parent Node Connection,VAV WITH REHEAT SUPPLY EQUIPMENT INLET NODE,BRANCH,VAV WITH REHEAT AIR LOOP MAIN BRANCH,Inlet,1
 Parent Node Connection,VAV WITH REHEAT_OA-VAV WITH REHEAT_COOLCNODE,BRANCH,VAV WITH REHEAT AIR LOOP MAIN BRANCH,Internal,1
 Parent Node Connection,VAV WITH REHEAT_COOLC-VAV WITH REHEAT_HEATCNODE,BRANCH,VAV WITH REHEAT AIR LOOP MAIN BRANCH,Internal,1
 Parent Node Connection,VAV WITH REHEAT_HEATC-VAV WITH REHEAT FANNODE,BRANCH,VAV WITH REHEAT AIR LOOP MAIN BRANCH,Internal,1
 Parent Node Connection,VAV WITH REHEAT SUPPLY EQUIPMENT OUTLET NODE,BRANCH,VAV WITH REHEAT AIR LOOP MAIN BRANCH,Outlet,1
 Parent Node Connection,SHWSYS1 SUPPLY INLET NODE,BRANCH,SHWSYS1 SUPPLY INLET BRANCH,Inlet,1
 Parent Node Connection,SHWSYS1 PUMP-SHWSYS1 WATER HEATERNODEVIACONNECTOR,BRANCH,SHWSYS1 SUPPLY INLET BRANCH,Outlet,1
 Parent Node Connection,SHWSYS1 PUMP-SHWSYS1 WATER HEATERNODE,BRANCH,SHWSYS1 SUPPLY EQUIPMENT BRANCH,Inlet,1
 Parent Node Connection,SHWSYS1 SUPPLY EQUIPMENT OUTLET NODE,BRANCH,SHWSYS1 SUPPLY EQUIPMENT BRANCH,Outlet,1
 Parent Node Connection,SHWSYS1 SUPPLY EQUIP BYPASS INLET NODE,BRANCH,SHWSYS1 SUPPLY EQUIPMENT BYPASS BRANCH,Inlet,1
 Parent Node Connection,SHWSYS1 SUPPLY EQUIP BYPASS OUTLET NODE,BRANCH,SHWSYS1 SUPPLY EQUIPMENT BYPASS BRANCH,Outlet,1
 Parent Node Connection,SHWSYS1 SUPPLY MIXER-SHWSYS1 SUPPLY OUTLET PIPE,BRANCH,SHWSYS1 SUPPLY OUTLET BRANCH,Inlet,1
 Parent Node Connection,SHWSYS1 SUPPLY OUTLET NODE,BRANCH,SHWSYS1 SUPPLY OUTLET BRANCH,Outlet,1
 Parent Node Connection,SHWSYS1 DEMAND INLET NODE,BRANCH,SHWSYS1 DEMAND INLET BRANCH,Inlet,1
 Parent Node Connection,SHWSYS1 DEMAND INLET PIPE-SHWSYS1 DEMAND MIXER,BRANCH,SHWSYS1 DEMAND INLET BRANCH,Outlet,1
 Parent Node Connection,ZN_1_FLR_1_SEC_1SHW_DEFAULT WATER INLET NODE,BRANCH,SHWSYS1 DEMAND LOAD BRANCH 1,Inlet,1
 Parent Node Connection,ZN_1_FLR_1_SEC_1SHW_DEFAULT WATER OUTLET NODE,BRANCH,SHWSYS1 DEMAND LOAD BRANCH 1,Outlet,1
 Parent Node Connection,ZN_1_FLR_1_SEC_2SHW_DEFAULT WATER INLET NODE,BRANCH,SHWSYS1 DEMAND LOAD BRANCH 2,Inlet,1
 Parent Node Connection,ZN_1_FLR_1_SEC_2SHW_DEFAULT WATER OUTLET NODE,BRANCH,SHWSYS1 DEMAND LOAD BRANCH 2,Outlet,1
 Parent Node Connection,ZN_1_FLR_1_SEC_3SHW_DEFAULT WATER INLET NODE,BRANCH,SHWSYS1 DEMAND LOAD BRANCH 3,Inlet,1
 Parent Node Connection,ZN_1_FLR_1_SEC_3SHW_DEFAULT WATER OUTLET NODE,BRANCH,SHWSYS1 DEMAND LOAD BRANCH 3,Outlet,1
 Parent Node Connection,ZN_1_FLR_1_SEC_4SHW_DEFAULT WATER INLET NODE,BRANCH,SHWSYS1 DEMAND LOAD BRANCH 4,Inlet,1
 Parent Node Connection,ZN_1_FLR_1_SEC_4SHW_DEFAULT WATER OUTLET NODE,BRANCH,SHWSYS1 DEMAND LOAD BRANCH 4,Outlet,1
 Parent Node Connection,ZN_1_FLR_1_SEC_5SHW_DEFAULT WATER INLET NODE,BRANCH,SHWSYS1 DEMAND LOAD BRANCH 5,Inlet,1
 Parent Node Connection,ZN_1_FLR_1_SEC_5SHW_DEFAULT WATER OUTLET NODE,BRANCH,SHWSYS1 DEMAND LOAD BRANCH 5,Outlet,1
 Parent Node Connection,SHWSYS1 DEMAND BYPASS PIPE INLET NODE,BRANCH,SHWSYS1 DEMAND BYPASS BRANCH,Inlet,1
 Parent Node Connection,SHWSYS1 DEMAND BYPASS PIPE OUTLET NODE,BRANCH,SHWSYS1 DEMAND BYPASS BRANCH,Outlet,1
 Parent Node Connection,SHWSYS1 DEMAND MIXER-SHWSYS1 DEMAND OUTLET PIPE,BRANCH,SHWSYS1 DEMAND OUTLET BRANCH,Inlet,1
 Parent Node Connection,SHWSYS1 DEMAND OUTLET NODE,BRANCH,SHWSYS1 DEMAND OUTLET BRANCH,Outlet,1
 Parent Node Connection,HEATSYS1 SUPPLY INLET NODE,BRANCH,HEATSYS1 SUPPLY INLET BRANCH,Inlet,1
 Parent Node Connection,HEATSYS1 PUMP-HEATSYS1 BOILERNODEVIACONNECTOR,BRANCH,HEATSYS1 SUPPLY INLET BRANCH,Outlet,1
 Parent Node Connection,HEATSYS1 PUMP-HEATSYS1 BOILERNODE,BRANCH,HEATSYS1 SUPPLY EQUIPMENT BRANCH,Inlet,1
 Parent Node Connection,HEATSYS1 SUPPLY EQUIPMENT OUTLET NODE,BRANCH,HEATSYS1 SUPPLY EQUIPMENT BRANCH,Outlet,1
 Parent Node Connection,HEATSYS1 SUPPLY EQUIP BYPASS INLET NODE,BRANCH,HEATSYS1 SUPPLY EQUIPMENT BYPASS BRANCH,Inlet,1
 Parent Node Connection,HEATSYS1 SUPPLY EQUIP BYPASS OUTLET NODE,BRANCH,HEATSYS1 SUPPLY EQUIPMENT BYPASS BRANCH,Outlet,1
 Parent Node Connection,HEATSYS1 SUPPLY MIXER-HEATSYS1 SUPPLY OUTLET PIPE,BRANCH,HEATSYS1 SUPPLY OUTLET BRANCH,Inlet,1
 Parent Node Connection,HEATSYS1 SUPPLY OUTLET NODE,BRANCH,HEATSYS1 SUPPLY OUTLET BRANCH,Outlet,1
 Parent Node Connection,HEATSYS1 DEMAND INLET NODE,BRANCH,HEATSYS1 DEMAND INLET BRANCH,Inlet,1
 Parent Node Connection,HEATSYS1 DEMAND INLET PIPE-HEATSYS1 DEMAND MIXER,BRANCH,HEATSYS1 DEMAND INLET BRANCH,Outlet,1
 Parent Node Connection,ZN_1_FLR_1_SEC_1 VAV BOX REHEAT COILDEMAND INLET NODE,BRANCH,HEATSYS1 DEMAND LOAD BRANCH 1,Inlet,1
 Parent Node Connection,ZN_1_FLR_1_SEC_1 VAV BOX REHEAT COILDEMAND OUTLET NODE,BRANCH,HEATSYS1 DEMAND LOAD BRANCH 1,Outlet,1
 Parent Node Connection,ZN_1_FLR_1_SEC_2 VAV BOX REHEAT COILDEMAND INLET NODE,BRANCH,HEATSYS1 DEMAND LOAD BRANCH 2,Inlet,1
 Parent Node Connection,ZN_1_FLR_1_SEC_2 VAV BOX REHEAT COILDEMAND OUTLET NODE,BRANCH,HEATSYS1 DEMAND LOAD BRANCH 2,Outlet,1
 Parent Node Connection,ZN_1_FLR_1_SEC_3 VAV BOX REHEAT COILDEMAND INLET NODE,BRANCH,HEATSYS1 DEMAND LOAD BRANCH 3,Inlet,1
 Parent Node Connection,ZN_1_FLR_1_SEC_3 VAV BOX REHEAT COILDEMAND OUTLET NODE,BRANCH,HEATSYS1 DEMAND LOAD BRANCH 3,Outlet,1
 Parent Node Connection,ZN_1_FLR_1_SEC_4 VAV BOX REHEAT COILDEMAND INLET NODE,BRANCH,HEATSYS1 DEMAND LOAD BRANCH 4,Inlet,1
 Parent Node Connection,ZN_1_FLR_1_SEC_4 VAV BOX REHEAT COILDEMAND OUTLET NODE,BRANCH,HEATSYS1 DEMAND LOAD BRANCH 4,Outlet,1
 Parent Node Connection,ZN_1_FLR_1_SEC_5 VAV BOX REHEAT COILDEMAND INLET NODE,BRANCH,HEATSYS1 DEMAND LOAD BRANCH 5,Inlet,1
 Parent Node Connection,ZN_1_FLR_1_SEC_5 VAV BOX REHEAT COILDEMAND OUTLET NODE,BRANCH,HEATSYS1 DEMAND LOAD BRANCH 5,Outlet,1
 Parent Node Connection,VAV WITH REHEAT_HEATCDEMAND INLET NODE,BRANCH,HEATSYS1 DEMAND LOAD BRANCH 6,Inlet,1
 Parent Node Connection,VAV WITH REHEAT_HEATCDEMAND OUTLET NODE,BRANCH,HEATSYS1 DEMAND LOAD BRANCH 6,Outlet,1
 Parent Node Connection,HEATSYS1 DEMAND BYPASS PIPE INLET NODE,BRANCH,HEATSYS1 DEMAND BYPASS BRANCH,Inlet,1
 Parent Node Connection,HEATSYS1 DEMAND BYPASS PIPE OUTLET NODE,BRANCH,HEATSYS1 DEMAND BYPASS BRANCH,Outlet,1
 Parent Node Connection,HEATSYS1 DEMAND MIXER-HEATSYS1 DEMAND OUTLET PIPE,BRANCH,HEATSYS1 DEMAND OUTLET BRANCH,Inlet,1
 Parent Node Connection,HEATSYS1 DEMAND OUTLET NODE,BRANCH,HEATSYS1 DEMAND OUTLET BRANCH,Outlet,1
 Parent Node Connection,COOLSYSPRIMARY SUPPLY INLET NODE,BRANCH,COOLSYSPRIMARY SUPPLY INLET BRANCH,Inlet,1
 Parent Node Connection,COOLSYSPRIMARY PUMP-COOLSYSPRIMARY CHILLERNODEVIACONNECTOR,BRANCH,COOLSYSPRIMARY SUPPLY INLET BRANCH,Outlet,1
 Parent Node Connection,COOLSYSPRIMARY PUMP-COOLSYSPRIMARY CHILLERNODE,BRANCH,COOLSYSPRIMARY SUPPLY EQUIPMENT BRANCH,Inlet,1
 Parent Node Connection,COOLSYSPRIMARY SUPPLY EQUIPMENT OUTLET NODE,BRANCH,COOLSYSPRIMARY SUPPLY EQUIPMENT BRANCH,Outlet,1
 Parent Node Connection,COOLSYSPRIMARY SUPPLY EQUIP BYPASS INLET NODE,BRANCH,COOLSYSPRIMARY SUPPLY EQUIPMENT BYPASS BRANCH,Inlet,1
 Parent Node Connection,COOLSYSPRIMARY SUPPLY EQUIP BYPASS OUTLET NODE,BRANCH,COOLSYSPRIMARY SUPPLY EQUIPMENT BYPASS BRANCH,Outlet,1
 Parent Node Connection,COOLSYSPRIMARY SUPPLY MIXER-COOLSYSPRIMARY SUPPLY OUTLET PIPE,BRANCH,COOLSYSPRIMARY SUPPLY OUTLET BRANCH,Inlet,1
 Parent Node Connection,COOLSYSPRIMARY SUPPLY OUTLET NODE,BRANCH,COOLSYSPRIMARY SUPPLY OUTLET BRANCH,Outlet,1
 Parent Node Connection,COOLSYSPRIMARY DEMAND INLET NODE,BRANCH,COOLSYSPRIMARY DEMAND INLET BRANCH,Inlet,1
 Parent Node Connection,COOLSYSPRIMARY DEMAND INLET PIPE-COOLSYSPRIMARY DEMAND MIXER,BRANCH,COOLSYSPRIMARY DEMAND INLET BRANCH,Outlet,1
 Parent Node Connection,CW TANK CHARGE INLET NODE,BRANCH,COOLSYSPRIMARY CW STORAGE CHARGE BRANCH,Inlet,1
 Parent Node Connection,CW TANK CHARGE OUTLET NODE,BRANCH,COOLSYSPRIMARY CW STORAGE CHARGE BRANCH,Outlet,1
 Parent Node Connection,COOLSYSPRIMARY DEMAND BYPASS PIPE INLET NODE,BRANCH,COOLSYSPRIMARY DEMAND BYPASS BRANCH,Inlet,1
 Parent Node Connection,COOLSYSPRIMARY DEMAND BYPASS PIPE OUTLET NODE,BRANCH,COOLSYSPRIMARY DEMAND BYPASS BRANCH,Outlet,1
 Parent Node Connection,COOLSYSPRIMARY DEMAND MIXER-COOLSYSPRIMARY DEMAND OUTLET PIPE,BRANCH,COOLSYSPRIMARY DEMAND OUTLET BRANCH,Inlet,1
 Parent Node Connection,COOLSYSPRIMARY DEMAND OUTLET NODE,BRANCH,COOLSYSPRIMARY DEMAND OUTLET BRANCH,Outlet,1
 Parent Node Connection,COOLSYSSECONDARY SUPPLY INLET NODE,BRANCH,COOLSYSSECONDARY SUPPLY INLET BRANCH,Inlet,1
[...]
 Non-Parent Node Connection,VAV WITH REHEAT_HEATCDEMAND INLET NODE,CONNECTOR:SPLITTER,HEATSYS1 DEMAND SPLITTER,Outlet,1
 Non-Parent Node Connection,HEATSYS1 DEMAND BYPASS PIPE INLET NODE,CONNECTOR:SPLITTER,HEATSYS1 DEMAND SPLITTER,Outlet,1
 Non-Parent Node Connection,HEATSYS1 DEMAND MIXER-HEATSYS1 DEMAND OUTLET PIPE,CONNECTOR:MIXER,HEATSYS1 DEMAND MIXER,Outlet,1
 Non-Parent Node Connection,ZN_1_FLR_1_SEC_1 VAV BOX REHEAT COILDEMAND OUTLET NODE,CONNECTOR:MIXER,HEATSYS1 DEMAND MIXER,Inlet,1
 Non-Parent Node Connection,ZN_1_FLR_1_SEC_2 VAV BOX REHEAT COILDEMAND OUTLET NODE,CONNECTOR:MIXER,HEATSYS1 DEMAND MIXER,Inlet,1
 Non-Parent Node Connection,ZN_1_FLR_1_SEC_3 VAV BOX REHEAT COILDEMAND OUTLET NODE,CONNECTOR:MIXER,HEATSYS1 DEMAND MIXER,Inlet,1
 Non-Parent Node Connection,ZN_1_FLR_1_SEC_4 VAV BOX REHEAT COILDEMAND OUTLET NODE,CONNECTOR:MIXER,HEATSYS1 DEMAND MIXER,Inlet,1
 Non-Parent Node Connection,ZN_1_FLR_1_SEC_5 VAV BOX REHEAT COILDEMAND OUTLET NODE,CONNECTOR:MIXER,HEATSYS1 DEMAND MIXER,Inlet,1
 Non-Parent Node Connection,VAV WITH REHEAT_HEATCDEMAND OUTLET NODE,CONNECTOR:MIXER,HEATSYS1 DEMAND MIXER,Inlet,1
 Non-Parent Node Connection,HEATSYS1 DEMAND BYPASS PIPE OUTLET NODE,CONNECTOR:MIXER,HEATSYS1 DEMAND MIXER,Inlet,1
 Non-Parent Node Connection,HEATSYS1 PUMP-HEATSYS1 BOILERNODEVIACONNECTOR,CONNECTOR:SPLITTER,HEATSYS1 SUPPLY SPLITTER,Inlet,1
 Non-Parent Node Connection,HEATSYS1 PUMP-HEATSYS1 BOILERNODE,CONNECTOR:SPLITTER,HEATSYS1 SUPPLY SPLITTER,Outlet,1
 Non-Parent Node Connection,HEATSYS1 SUPPLY EQUIP BYPASS INLET NODE,CONNECTOR:SPLITTER,HEATSYS1 SUPPLY SPLITTER,Outlet,1
 Non-Parent Node Connection,HEATSYS1 SUPPLY MIXER-HEATSYS1 SUPPLY OUTLET PIPE,CONNECTOR:MIXER,HEATSYS1 SUPPLY MIXER,Outlet,1
 Non-Parent Node Connection,HEATSYS1 SUPPLY EQUIPMENT OUTLET NODE,CONNECTOR:MIXER,HEATSYS1 SUPPLY MIXER,Inlet,1
 Non-Parent Node Connection,HEATSYS1 SUPPLY EQUIP BYPASS OUTLET NODE,CONNECTOR:MIXER,HEATSYS1 SUPPLY MIXER,Inlet,1
 Non-Parent Node Connection,COOLSYSPRIMARY DEMAND INLET PIPE-COOLSYSPRIMARY DEMAND MIXER,CONNECTOR:SPLITTER,COOLSYSPRIMARY DEMAND SPLITTER,Inlet,1
 Non-Parent Node Connection,CW TANK CHARGE INLET NODE,CONNECTOR:SPLITTER,COOLSYSPRIMARY DEMAND SPLITTER,Outlet,1
 Non-Parent Node Connection,COOLSYSPRIMARY DEMAND BYPASS PIPE INLET NODE,CONNECTOR:SPLITTER,COOLSYSPRIMARY DEMAND SPLITTER,Outlet,1
 Non-Parent Node Connection,COOLSYSPRIMARY DEMAND MIXER-COOLSYSPRIMARY DEMAND OUTLET PIPE,CONNECTOR:MIXER,COOLSYSPRIMARY DEMAND MIXER,Outlet,1
 Non-Parent Node Connection,CW TANK CHARGE OUTLET NODE,CONNECTOR:MIXER,COOLSYSPRIMARY DEMAND MIXER,Inlet,1
 Non-Parent Node Connection,COOLSYSPRIMARY DEMAND BYPASS PIPE OUTLET NODE,CONNECTOR:MIXER,COOLSYSPRIMARY DEMAND MIXER,Inlet,1
 Non-Parent Node Connection,COOLSYSPRIMARY PUMP-COOLSYSPRIMARY CHILLERNODEVIACONNECTOR,CONNECTOR:SPLITTER,COOLSYSPRIMARY SUPPLY SPLITTER,Inlet,1
 Non-Parent Node Connection,COOLSYSPRIMARY PUMP-COOLSYSPRIMARY CHILLERNODE,CONNECTOR:SPLITTER,COOLSYSPRIMARY SUPPLY SPLITTER,Outlet,1
 Non-Parent Node Connection,COOLSYSPRIMARY SUPPLY EQUIP BYPASS INLET NODE,CONNECTOR:SPLITTER,COOLSYSPRIMARY SUPPLY SPLITTER,Outlet,1
 Non-Parent Node Connection,COOLSYSPRIMARY SUPPLY MIXER-COOLSYSPRIMARY SUPPLY OUTLET PIPE,CONNECTOR:MIXER,COOLSYSPRIMARY SUPPLY MIXER,Outlet,1
 Non-Parent Node Connection,COOLSYSPRIMARY SUPPLY EQUIPMENT OUTLET NODE,CONNECTOR:MIXER,COOLSYSPRIMARY SUPPLY MIXER,Inlet,1
 Non-Parent Node Connection,COOLSYSPRIMARY SUPPLY EQUIP BYPASS OUTLET NODE,CONNECTOR:MIXER,COOLSYSPRIMARY SUPPLY MIXER,Inlet,1
 Non-Parent Node Connection,COOLSYSSECONDARY DEMAND INLET PIPE-COOLSYSSECONDARY DEMAND MIXER,CONNECTOR:SPLITTER,COOLSYSSECONDARY DEMAND SPLITTER,Inlet,1
 Non-Parent Node Connection,VAV WITH REHEAT_COOLCDEMAND INLET NODE,CONNECTOR:SPLITTER,COOLSYSSECONDARY DEMAND SPLITTER,Outlet,1
 Non-Parent Node Connection,COOLSYSSECONDARY DEMAND BYPASS PIPE INLET NODE,CONNECTOR:SPLITTER,COOLSYSSECONDARY DEMAND SPLITTER,Outlet,1
 Non-Parent Node Connection,COOLSYSSECONDARY DEMAND MIXER-COOLSYSSECONDARY DEMAND OUTLET PIPE,CONNECTOR:MIXER,COOLSYSSECONDARY DEMAND MIXER,Outlet,1
 Non-Parent Node Connection,VAV WITH REHEAT_COOLCDEMAND OUTLET NODE,CONNECTOR:MIXER,COOLSYSSECONDARY DEMAND MIXER,Inlet,1
 Non-Parent Node Connection,COOLSYSSECONDARY DEMAND BYPASS PIPE OUTLET NODE,CONNECTOR:MIXER,COOLSYSSECONDARY DEMAND MIXER,Inlet,1
 Non-Parent Node Connection,COOLSYSSECONDARY PUMP-COOLSYSSECONDARY CHILLERNODEVIACONNECTOR,CONNECTOR:SPLITTER,COOLSYSSECONDARY SUPPLY SPLITTER,Inlet,1
 Non-Parent Node Connection,COOLSYSSECONDARY PUMP-COOLSYSSECONDARY CHILLERNODE,CONNECTOR:SPLITTER,COOLSYSSECONDARY SUPPLY SPLITTER,Outlet,1
 Non-Parent Node Connection,CW TANK DISCHARGE INLET NODE,CONNECTOR:SPLITTER,COOLSYSSECONDARY SUPPLY SPLITTER,Outlet,1
 Non-Parent Node Connection,COOLSYSSECONDARY SUPPLY EQUIP BYPASS INLET NODE,CONNECTOR:SPLITTER,COOLSYSSECONDARY SUPPLY SPLITTER,Outlet,1
 Non-Parent Node Connection,COOLSYSSECONDARY SUPPLY MIXER-COOLSYSSECONDARY SUPPLY OUTLET PIPE,CONNECTOR:MIXER,COOLSYSSECONDARY SUPPLY MIXER,Outlet,1
 Non-Parent Node Connection,COOLSYSSECONDARY SUPPLY EQUIPMENT OUTLET NODE,CONNECTOR:MIXER,COOLSYSSECONDARY SUPPLY MIXER,Inlet,1
 Non-Parent Node Connection,CW TANK DISCHARGE OUTLET NODE,CONNECTOR:MIXER,COOLSYSSECONDARY SUPPLY MIXER,Inlet,1
 Non-Parent Node Connection,COOLSYSSECONDARY SUPPLY EQUIP BYPASS OUTLET NODE,CONNECTOR:MIXER,COOLSYSSECONDARY SUPPLY MIXER,Inlet,1
 Non-Parent Node Connection,TOWERWATERSYS DEMAND INLET PIPE-TOWERWATERSYS DEMAND MIXER,CONNECTOR:SPLITTER,TOWERWATERSYS DEMAND SPLITTER,Inlet,1
 Non-Parent Node Connection,COOLSYSSECONDARY CHILLER WATER INLET NODE,CONNECTOR:SPLITTER,TOWERWATERSYS DEMAND SPLITTER,Outlet,1
 Non-Parent Node Connection,COOLSYSPRIMARY CHILLER WATER INLET NODE,CONNECTOR:SPLITTER,TOWERWATERSYS DEMAND SPLITTER,Outlet,1
 Non-Parent Node Connection,TOWERWATERSYS DEMAND BYPASS PIPE INLET NODE,CONNECTOR:SPLITTER,TOWERWATERSYS DEMAND SPLITTER,Outlet,1
 Non-Parent Node Connection,TOWERWATERSYS DEMAND MIXER-TOWERWATERSYS DEMAND OUTLET PIPE,CONNECTOR:MIXER,TOWERWATERSYS DEMAND MIXER,Outlet,1
 Non-Parent Node Connection,COOLSYSSECONDARY CHILLER WATER OUTLET NODE,CONNECTOR:MIXER,TOWERWATERSYS DEMAND MIXER,Inlet,1
 Non-Parent Node Connection,COOLSYSPRIMARY CHILLER WATER OUTLET NODE,CONNECTOR:MIXER,TOWERWATERSYS DEMAND MIXER,Inlet,1
 Non-Parent Node Connection,TOWERWATERSYS DEMAND BYPASS PIPE OUTLET NODE,CONNECTOR:MIXER,TOWERWATERSYS DEMAND MIXER,Inlet,1
 Non-Parent Node Connection,TOWERWATERSYS PUMP-TOWERWATERSYS COOLTOWERNODEVIACONNECTOR,CONNECTOR:SPLITTER,TOWERWATERSYS SUPPLY SPLITTER,Inlet,1
 Non-Parent Node Connection,TOWERWATERSYS PUMP-TOWERWATERSYS COOLTOWERNODE,CONNECTOR:SPLITTER,TOWERWATERSYS SUPPLY SPLITTER,Outlet,1
 Non-Parent Node Connection,TOWERWATERSYS SUPPLY EQUIP BYPASS INLET NODE,CONNECTOR:SPLITTER,TOWERWATERSYS SUPPLY SPLITTER,Outlet,1
 Non-Parent Node Connection,TOWERWATERSYS SUPPLY MIXER-TOWERWATERSYS SUPPLY OUTLET PIPE,CONNECTOR:MIXER,TOWERWATERSYS SUPPLY MIXER,Outlet,1
 Non-Parent Node Connection,TOWERWATERSYS SUPPLY EQUIPMENT OUTLET NODE,CONNECTOR:MIXER,TOWERWATERSYS SUPPLY MIXER,Inlet,1
 Non-Parent Node Connection,TOWERWATERSYS SUPPLY EQUIP BYPASS OUTLET NODE,CONNECTOR:MIXER,TOWERWATERSYS SUPPLY MIXER,Inlet,1
 Non-Parent Node Connection,ZN_1_FLR_1_SEC_1SHW_DEFAULT WATER INLET NODE,WATERUSE:CONNECTIONS,ZN_1_FLR_1_SEC_1SHW_DEFAULT,Inlet,1
 Non-Parent Node Connection,ZN_1_FLR_1_SEC_1SHW_DEFAULT WATER OUTLET NODE,WATERUSE:CONNECTIONS,ZN_1_FLR_1_SEC_1SHW_DEFAULT,Outlet,1
 Non-Parent Node Connection,ZN_1_FLR_1_SEC_2SHW_DEFAULT WATER INLET NODE,WATERUSE:CONNECTIONS,ZN_1_FLR_1_SEC_2SHW_DEFAULT,Inlet,1
 Non-Parent Node Connection,ZN_1_FLR_1_SEC_2SHW_DEFAULT WATER OUTLET NODE,WATERUSE:CONNECTIONS,ZN_1_FLR_1_SEC_2SHW_DEFAULT,Outlet,1
 Non-Parent Node Connection,ZN_1_FLR_1_SEC_3SHW_DEFAULT WATER INLET NODE,WATERUSE:CONNECTIONS,ZN_1_FLR_1_SEC_3SHW_DEFAULT,Inlet,1
 Non-Parent Node Connection,ZN_1_FLR_1_SEC_3SHW_DEFAULT WATER OUTLET NODE,WATERUSE:CONNECTIONS,ZN_1_FLR_1_SEC_3SHW_DEFAULT,Outlet,1
 Non-Parent Node Connection,ZN_1_FLR_1_SEC_4SHW_DEFAULT WATER INLET NODE,WATERUSE:CONNECTIONS,ZN_1_FLR_1_SEC_4SHW_DEFAULT,Inlet,1
 Non-Parent Node Connection,ZN_1_FLR_1_SEC_4SHW_DEFAULT WATER OUTLET NODE,WATERUSE:CONNECTIONS,ZN_1_FLR_1_SEC_4SHW_DEFAULT,Outlet,1
 Non-Parent Node Connection,ZN_1_FLR_1_SEC_5SHW_DEFAULT WATER INLET NODE,WATERUSE:CONNECTIONS,ZN_1_FLR_1_SEC_5SHW_DEFAULT,Inlet,1
 Non-Parent Node Connection,ZN_1_FLR_1_SEC_5SHW_DEFAULT WATER OUTLET NODE,WATERUSE:CONNECTIONS,ZN_1_FLR_1_SEC_5SHW_DEFAULT,Outlet,1
 Non-Parent Node Connection,VAV WITH REHEAT ZONE EQUIPMENT INLET NODE,AIRLOOPHVAC:ZONESPLITTER,VAV WITH REHEAT SUPPLY AIR SPLITTER,Inlet,1
 Non-Parent Node Connection,ZN_1_FLR_1_SEC_1 VAV BOX INLET NODE,AIRLOOPHVAC:ZONESPLITTER,VAV WITH REHEAT SUPPLY AIR SPLITTER,Outlet,1
 Non-Parent Node Connection,ZN_1_FLR_1_SEC_2 VAV BOX INLET NODE,AIRLOOPHVAC:ZONESPLITTER,VAV WITH REHEAT SUPPLY AIR SPLITTER,Outlet,1
 Non-Parent Node Connection,ZN_1_FLR_1_SEC_3 VAV BOX INLET NODE,AIRLOOPHVAC:ZONESPLITTER,VAV WITH REHEAT SUPPLY AIR SPLITTER,Outlet,1
 Non-Parent Node Connection,ZN_1_FLR_1_SEC_4 VAV BOX INLET NODE,AIRLOOPHVAC:ZONESPLITTER,VAV WITH REHEAT SUPPLY AIR SPLITTER,Outlet,1
 Non-Parent Node Connection,ZN_1_FLR_1_SEC_5 VAV BOX INLET NODE,AIRLOOPHVAC:ZONESPLITTER,VAV WITH REHEAT SUPPLY AIR SPLITTER,Outlet,1
 Non-Parent Node Connection,ZN_1_FLR_1_SEC_1 VAV BOX REHEAT COILDEMAND INLET NODE,COIL:HEATING:WATER,ZN_1_FLR_1_SEC_1 VAV BOX REHEAT COIL,Inlet,2
 Non-Parent Node Connection,ZN_1_FLR_1_SEC_1 VAV BOX REHEAT COILDEMAND OUTLET NODE,COIL:HEATING:WATER,ZN_1_FLR_1_SEC_1 VAV BOX REHEAT COIL,Outlet,2
 Non-Parent Node Connection,ZN_1_FLR_1_SEC_1 VAV BOX DAMPER NODE,COIL:HEATING:WATER,ZN_1_FLR_1_SEC_1 VAV BOX REHEAT COIL,Inlet,1
 Non-Parent Node Connection,ZN_1_FLR_1_SEC_1 VAV BOX OUTLET NODE,COIL:HEATING:WATER,ZN_1_FLR_1_SEC_1 VAV BOX REHEAT COIL,Outlet,1
 Non-Parent Node Connection,ZN_1_FLR_1_SEC_2 VAV BOX REHEAT COILDEMAND INLET NODE,COIL:HEATING:WATER,ZN_1_FLR_1_SEC_2 VAV BOX REHEAT COIL,Inlet,2
 Non-Parent Node Connection,ZN_1_FLR_1_SEC_2 VAV BOX REHEAT COILDEMAND OUTLET NODE,COIL:HEATING:WATER,ZN_1_FLR_1_SEC_2 VAV BOX REHEAT COIL,Outlet,2
 Non-Parent Node Connection,ZN_1_FLR_1_SEC_2 VAV BOX DAMPER NODE,COIL:HEATING:WATER,ZN_1_FLR_1_SEC_2 VAV BOX REHEAT COIL,Inlet,1
 Non-Parent Node Connection,ZN_1_FLR_1_SEC_2 VAV BOX OUTLET NODE,COIL:HEATING:WATER,ZN_1_FLR_1_SEC_2 VAV BOX REHEAT COIL,Outlet,1
 Non-Parent Node Connection,ZN_1_FLR_1_SEC_3 VAV BOX REHEAT COILDEMAND INLET NODE,COIL:HEATING:WATER,ZN_1_FLR_1_SEC_3 VAV BOX REHEAT COIL,Inlet,2
 Non-Parent Node Connection,ZN_1_FLR_1_SEC_3 VAV BOX REHEAT COILDEMAND OUTLET NODE,COIL:HEATING:WATER,ZN_1_FLR_1_SEC_3 VAV BOX REHEAT COIL,Outlet,2
 Non-Parent Node Connection,ZN_1_FLR_1_SEC_3 VAV BOX DAMPER NODE,COIL:HEATING:WATER,ZN_1_FLR_1_SEC_3 VAV BOX REHEAT COIL,Inlet,1
 Non-Parent Node Connection,ZN_1_FLR_1_SEC_3 VAV BOX OUTLET NODE,COIL:HEATING:WATER,ZN_1_FLR_1_SEC_3 VAV BOX REHEAT COIL,Outlet,1
 Non-Parent Node Connection,ZN_1_FLR_1_SEC_4 VAV BOX REHEAT COILDEMAND INLET NODE,COIL:HEATING:WATER,ZN_1_FLR_1_SEC_4 VAV BOX REHEAT COIL,Inlet,2
 Non-Parent Node Connection,ZN_1_FLR_1_SEC_4 VAV BOX REHEAT COILDEMAND OUTLET NODE,COIL:HEATING:WATER,ZN_1_FLR_1_SEC_4 VAV BOX REHEAT COIL,Outlet,2
 Non-Parent Node Connection,ZN_1_FLR_1_SEC_4 VAV BOX DAMPER NODE,COIL:HEATING:WATER,ZN_1_FLR_1_SEC_4 VAV BOX REHEAT COIL,Inlet,1
 Non-Parent Node Connection,ZN_1_FLR_1_SEC_4 VAV BOX OUTLET NODE,COIL:HEATING:WATER,ZN_1_FLR_1_SEC_4 VAV BOX REHEAT COIL,Outlet,1
 Non-Parent Node Connection,ZN_1_FLR_1_SEC_5 VAV BOX REHEAT COILDEMAND INLET NODE,COIL:HEATING:WATER,ZN_1_FLR_1_SEC_5 VAV BOX REHEAT COIL,Inlet,2
 Non-Parent Node Connection,ZN_1_FLR_1_SEC_5 VAV BOX REHEAT COILDEMAND OUTLET NODE,COIL:HEATING:WATER,ZN_1_FLR_1_SEC_5 VAV BOX REHEAT COIL,Outlet,2
 Non-Parent Node Connection,ZN_1_FLR_1_SEC_5 VAV BOX DAMPER NODE,COIL:HEATING:WATER,ZN_1_FLR_1_SEC_5 VAV BOX REHEAT COIL,Inlet,1
 Non-Parent Node Connection,ZN_1_FLR_1_SEC_5 VAV BOX OUTLET NODE,COIL:HEATING:WATER,ZN_1_FLR_1_SEC_5 VAV BOX REHEAT COIL,Outlet,1
 Non-Parent Node Connection,VAV WITH REHEAT_HEATCDEMAND INLET NODE,COIL:HEATING:WATER,VAV WITH REHEAT_HEATC,Inlet,2
 Non-Parent Node Connection,VAV WITH REHEAT_HEATCDEMAND OUTLET NODE,COIL:HEATING:WATER,VAV WITH REHEAT_HEATC,Outlet,2
 Non-Parent Node Connection,VAV WITH REHEAT_COOLC-VAV WITH REHEAT_HEATCNODE,COIL:HEATING:WATER,VAV WITH REHEAT_HEATC,Inlet,1
 Non-Parent Node Connection,VAV WITH REHEAT_HEATC-VAV WITH REHEAT FANNODE,COIL:HEATING:WATER,VAV WITH REHEAT_HEATC,Outlet,1
 Non-Parent Node Connection,VAV WITH REHEAT_COOLCDEMAND INLET NODE,COIL:COOLING:WATER,VAV WITH REHEAT_COOLC,Inlet,2
 Non-Parent Node Connection,VAV WITH REHEAT_COOLCDEMAND OUTLET NODE,COIL:COOLING:WATER,VAV WITH REHEAT_COOLC,Outlet,2
 Non-Parent Node Connection,VAV WITH REHEAT_OA-VAV WITH REHEAT_COOLCNODE,COIL:COOLING:WATER,VAV WITH REHEAT_COOLC,Inlet,1
 Non-Parent Node Connection,VAV WITH REHEAT_COOLC-VAV WITH REHEAT_HEATCNODE,COIL:COOLING:WATER,VAV WITH REHEAT_COOLC,Outlet,1
 Non-Parent Node Connection,ZONE 1 PIU MIXER AIR OUTLET NODE,FAN:CONSTANTVOLUME,ZONE 1 PIU FAN,Inlet,1
 Non-Parent Node Connection,ZN_1_FLR_1_SEC_1 VAV BOX DAMPER NODE,FAN:CONSTANTVOLUME,ZONE 1 PIU FAN,Outlet,1
 Non-Parent Node Connection,VAV WITH REHEAT_HEATC-VAV WITH REHEAT FANNODE,FAN:VARIABLEVOLUME,VAV WITH REHEAT FAN,Inlet,1
 Non-Parent Node Connection,VAV WITH REHEAT SUPPLY EQUIPMENT OUTLET NODE,FAN:VARIABLEVOLUME,VAV WITH REHEAT FAN,Outlet,1
 Non-Parent Node Connection,ZONE 1 PIU MIXER AIR OUTLET NODE,AIRLOOPHVAC:ZONEMIXER,ZONE 1 PIU MIXER,Outlet,1
 Non-Parent Node Connection,ZN_1_FLR_1_SEC_1 VAV BOX INLET NODE,AIRLOOPHVAC:ZONEMIXER,ZONE 1 PIU MIXER,Inlet,1
 Non-Parent Node Connection,ZN_1_FLR_1_SEC_1 EXHAUST NODE,AIRLOOPHVAC:ZONEMIXER,ZONE 1 PIU MIXER,Inlet,1
 Non-Parent Node Connection,VAV WITH REHEAT ZONE EQUIPMENT OUTLET NODE,AIRLOOPHVAC:ZONEMIXER,VAV WITH REHEAT RETURN AIR MIXER,Outlet,1
 Non-Parent Node Connection,ZN_1_FLR_1_SEC_1 RETURN AIR NODE,AIRLOOPHVAC:ZONEMIXER,VAV WITH REHEAT RETURN AIR MIXER,Inlet,1
 Non-Parent Node Connection,ZN_1_FLR_1_SEC_2 RETURN AIR NODE,AIRLOOPHVAC:ZONEMIXER,VAV WITH REHEAT RETURN AIR MIXER,Inlet,1
 Non-Parent Node Connection,ZN_1_FLR_1_SEC_3 RETURN AIR NODE,AIRLOOPHVAC:ZONEMIXER,VAV WITH REHEAT RETURN AIR MIXER,Inlet,1
 Non-Parent Node Connection,ZN_1_FLR_1_SEC_4 RETURN AIR NODE,AIRLOOPHVAC:ZONEMIXER,VAV WITH REHEAT RETURN AIR MIXER,Inlet,1
 Non-Parent Node Connection,ZN_1_FLR_1_SEC_5 RETURN AIR NODE,AIRLOOPHVAC:ZONEMIXER,VAV WITH REHEAT RETURN AIR MIXER,Inlet,1
 Non-Parent Node Connection,VAV WITH REHEAT_COOLC-VAV WITH REHEAT_HEATCNODE,CONTROLLER:WATERCOIL,VAV WITH REHEAT_COOLC_CONTROLLER,Sensor,1
 Non-Parent Node Connection,VAV WITH REHEAT_COOLCDEMAND INLET NODE,CONTROLLER:WATERCOIL,VAV WITH REHEAT_COOLC_CONTROLLER,Actuator,1
 Non-Parent Node Connection,VAV WITH REHEAT_HEATC-VAV WITH REHEAT FANNODE,CONTROLLER:WATERCOIL,VAV WITH REHEAT_HEATC_CONTROLLER,Sensor,1
 Non-Parent Node Connection,VAV WITH REHEAT_HEATCDEMAND INLET NODE,CONTROLLER:WATERCOIL,VAV WITH REHEAT_HEATC_CONTROLLER,Actuator,1
 Non-Parent Node Connection,ZN_1_FLR_1_SEC_2 VAV BOX DAMPER NODE,AIRTERMINAL:SINGLEDUCT:VAV:REHEAT,ZN_1_FLR_1_SEC_2 VAV BOX COMPONENT,Outlet,1
 Non-Parent Node Connection,ZN_1_FLR_1_SEC_2 VAV BOX INLET NODE,AIRTERMINAL:SINGLEDUCT:VAV:REHEAT,ZN_1_FLR_1_SEC_2 VAV BOX COMPONENT,Inlet,1
 Non-Parent Node Connection,ZN_1_FLR_1_SEC_3 VAV BOX DAMPER NODE,AIRTERMINAL:SINGLEDUCT:VAV:REHEAT,ZN_1_FLR_1_SEC_3 VAV BOX COMPONENT,Outlet,1
 Non-Parent Node Connection,ZN_1_FLR_1_SEC_3 VAV BOX INLET NODE,AIRTERMINAL:SINGLEDUCT:VAV:REHEAT,ZN_1_FLR_1_SEC_3 VAV BOX COMPONENT,Inlet,1
 Non-Parent Node Connection,ZN_1_FLR_1_SEC_4 VAV BOX DAMPER NODE,AIRTERMINAL:SINGLEDUCT:VAV:REHEAT,ZN_1_FLR_1_SEC_4 VAV BOX COMPONENT,Outlet,1
 Non-Parent Node Connection,ZN_1_FLR_1_SEC_4 VAV BOX INLET NODE,AIRTERMINAL:SINGLEDUCT:VAV:REHEAT,ZN_1_FLR_1_SEC_4 VAV BOX COMPONENT,Inlet,1
 Non-Parent Node Connection,ZN_1_FLR_1_SEC_5 VAV BOX DAMPER NODE,AIRTERMINAL:SINGLEDUCT:VAV:REHEAT,ZN_1_FLR_1_SEC_5 VAV BOX COMPONENT,Outlet,1
 Non-Parent Node Connection,ZN_1_FLR_1_SEC_5 VAV BOX INLET NODE,AIRTERMINAL:SINGLEDUCT:VAV:REHEAT,ZN_1_FLR_1_SEC_5 VAV BOX COMPONENT,Inlet,1
 Non-Parent Node Connection,VAV WITH REHEAT_OA-VAV WITH REHEAT_COOLCNODE,OUTDOORAIR:MIXER,VAV WITH REHEAT_OAMIXING BOX,Outlet,1
 Non-Parent Node Connection,VAV WITH REHEAT_OAINLET NODE,OUTDOORAIR:MIXER,VAV WITH REHEAT_OAMIXING BOX,Inlet,1
 Non-Parent Node Connection,VAV WITH REHEAT_OARELIEF NODE,OUTDOORAIR:MIXER,VAV WITH REHEAT_OAMIXING BOX,ReliefAir,1
 Non-Parent Node Connection,VAV WITH REHEAT SUPPLY EQUIPMENT INLET NODE,OUTDOORAIR:MIXER,VAV WITH REHEAT_OAMIXING BOX,Inlet,1
 Non-Parent Node Connection,VAV WITH REHEAT_OA-VAV WITH REHEAT_COOLCNODE,CONTROLLER:OUTDOORAIR,VAV WITH REHEAT_OA_CONTROLLER,Sensor,1
 Non-Parent Node Connection,VAV WITH REHEAT_OAINLET NODE,CONTROLLER:OUTDOORAIR,VAV WITH REHEAT_OA_CONTROLLER,Actuator,1
 Non-Parent Node Connection,VAV WITH REHEAT_OARELIEF NODE,CONTROLLER:OUTDOORAIR,VAV WITH REHEAT_OA_CONTROLLER,Actuator,1
 Non-Parent Node Connection,VAV WITH REHEAT SUPPLY EQUIPMENT INLET NODE,CONTROLLER:OUTDOORAIR,VAV WITH REHEAT_OA_CONTROLLER,Sensor,1
 Non-Parent Node Connection,HEATSYS1 PUMP-HEATSYS1 BOILERNODE,BOILER:HOTWATER,HEATSYS1 BOILER,Inlet,1
 Non-Parent Node Connection,HEATSYS1 SUPPLY EQUIPMENT OUTLET NODE,BOILER:HOTWATER,HEATSYS1 BOILER,Outlet,1
 Non-Parent Node Connection,COOLSYSPRIMARY PUMP-COOLSYSPRIMARY CHILLERNODE,CHILLER:ELECTRIC:EIR,COOLSYSPRIMARY CHILLER,Inlet,1
 Non-Parent Node Connection,COOLSYSPRIMARY SUPPLY EQUIPMENT OUTLET NODE,CHILLER:ELECTRIC:EIR,COOLSYSPRIMARY CHILLER,Outlet,1
 Non-Parent Node Connection,COOLSYSPRIMARY CHILLER WATER INLET NODE,CHILLER:ELECTRIC:EIR,COOLSYSPRIMARY CHILLER,Inlet,2
 Non-Parent Node Connection,COOLSYSPRIMARY CHILLER WATER OUTLET NODE,CHILLER:ELECTRIC:EIR,COOLSYSPRIMARY CHILLER,Outlet,2
 Non-Parent Node Connection,COOLSYSSECONDARY PUMP-COOLSYSSECONDARY CHILLERNODE,CHILLER:ELECTRIC:EIR,COOLSYSSECONDARY CHILLER,Inlet,1
 Non-Parent Node Connection,COOLSYSSECONDARY SUPPLY EQUIPMENT OUTLET NODE,CHILLER:ELECTRIC:EIR,COOLSYSSECONDARY CHILLER,Outlet,1
 Non-Parent Node Connection,COOLSYSSECONDARY CHILLER WATER INLET NODE,CHILLER:ELECTRIC:EIR,COOLSYSSECONDARY CHILLER,Inlet,2
 Non-Parent Node Connection,COOLSYSSECONDARY CHILLER WATER OUTLET NODE,CHILLER:ELECTRIC:EIR,COOLSYSSECONDARY CHILLER,Outlet,2
 Non-Parent Node Connection,TOWERWATERSYS PUMP-TOWERWATERSYS COOLTOWERNODE,COOLINGTOWER:SINGLESPEED,TOWERWATERSYS COOLTOWER,Inlet,1
 Non-Parent Node Connection,TOWERWATERSYS SUPPLY EQUIPMENT OUTLET NODE,COOLINGTOWER:SINGLESPEED,TOWERWATERSYS COOLTOWER,Outlet,1
 Non-Parent Node Connection,SHWSYS1 SUPPLY INLET NODE,PUMP:VARIABLESPEED,SHWSYS1 PUMP,Inlet,1
 Non-Parent Node Connection,SHWSYS1 PUMP-SHWSYS1 WATER HEATERNODEVIACONNECTOR,PUMP:VARIABLESPEED,SHWSYS1 PUMP,Outlet,1
 Non-Parent Node Connection,HEATSYS1 SUPPLY INLET NODE,PUMP:VARIABLESPEED,HEATSYS1 PUMP,Inlet,1
 Non-Parent Node Connection,HEATSYS1 PUMP-HEATSYS1 BOILERNODEVIACONNECTOR,PUMP:VARIABLESPEED,HEATSYS1 PUMP,Outlet,1
 Non-Parent Node Connection,COOLSYSPRIMARY SUPPLY INLET NODE,PUMP:VARIABLESPEED,COOLSYSPRIMARY PUMP,Inlet,1
 Non-Parent Node Connection,COOLSYSPRIMARY PUMP-COOLSYSPRIMARY CHILLERNODEVIACONNECTOR,PUMP:VARIABLESPEED,COOLSYSPRIMARY PUMP,Outlet,1
 Non-Parent Node Connection,COOLSYSSECONDARY SUPPLY INLET NODE,PUMP:VARIABLESPEED,COOLSYSSECONDARY PUMP,Inlet,1
 Non-Parent Node Connection,COOLSYSSECONDARY PUMP-COOLSYSSECONDARY CHILLERNODEVIACONNECTOR,PUMP:VARIABLESPEED,COOLSYSSECONDARY PUMP,Outlet,1
 Non-Parent Node Connection,TOWERWATERSYS SUPPLY INLET NODE,PUMP:CONSTANTSPEED,TOWERWATERSYS PUMP,Inlet,1
 Non-Parent Node Connection,TOWERWATERSYS PUMP-TOWERWATERSYS COOLTOWERNODEVIACONNECTOR,PUMP:CONSTANTSPEED,TOWERWATERSYS PUMP,Outlet,1
