Program Version,EnergyPlus, Version 9.0.0-2ef880da82, YMD=2018.10.23 17:56
! <Version>, Version ID
 Version, 9.0
! <Timesteps per Hour>, #TimeSteps, Minutes per TimeStep {minutes}
 Timesteps per Hour,  6, 10
! <System Convergence Limits>, Minimum System TimeStep {minutes}, Max HVAC Iterations, Minimum Plant Iterations, Maximum Plant Iterations
 System Convergence Limits, 1, 20, 2, 8
! <Simulation Control>, Do Zone Sizing, Do System Sizing, Do Plant Sizing, Do Design Days, Do Weather Simulation, Do HVAC Sizing Simulation
 Simulation Control, No, No, No, No, Yes, No
! <Output Reporting Tolerances>, Tolerance for Time Heating Setpoint Not Met, Tolerance for Zone Cooling Setpoint Not Met Time
 Output Reporting Tolerances, 0.200, 0.200, 
! <Site:GroundTemperature:BuildingSurface>,Jan{C},Feb{C},Mar{C},Apr{C},May{C},Jun{C},Jul{C},Aug{C},Sep{C},Oct{C},Nov{C},Dec{C}
 Site:GroundTemperature:BuildingSurface,  20.03,  20.03,  20.13,  20.30,  20.43,  20.52,  20.62,  20.77,  20.78,  20.55,  20.44,  20.20
! <Site:GroundTemperature:FCfactorMethod>,Jan{C},Feb{C},Mar{C},Apr{C},May{C},Jun{C},Jul{C},Aug{C},Sep{C},Oct{C},Nov{C},Dec{C}
 Site:GroundTemperature:FCfactorMethod,  -1.89,  -3.06,  -0.99,   2.23,  10.68,  17.20,  21.60,  22.94,  20.66,  15.60,   8.83,   2.56
! <Site:GroundTemperature:Shallow>,Jan{C},Feb{C},Mar{C},Apr{C},May{C},Jun{C},Jul{C},Aug{C},Sep{C},Oct{C},Nov{C},Dec{C}
 Site:GroundTemperature:Shallow,  13.00,  13.00,  13.00,  13.00,  13.00,  13.00,  13.00,  13.00,  13.00,  13.00,  13.00,  13.00
! <Site:GroundTemperature:Deep>,Jan{C},Feb{C},Mar{C},Apr{C},May{C},Jun{C},Jul{C},Aug{C},Sep{C},Oct{C},Nov{C},Dec{C}
 Site:GroundTemperature:Deep,  16.00,  16.00,  16.00,  16.00,  16.00,  16.00,  16.00,  16.00,  16.00,  16.00,  16.00,  16.00
! <Site:GroundReflectance>,Jan{dimensionless},Feb{dimensionless},Mar{dimensionless},Apr{dimensionless},May{dimensionless},Jun{dimensionless},Jul{dimensionless},Aug{dimensionless},Sep{dimensionless},Oct{dimensionless},Nov{dimensionless},Dec{dimensionless}
 Site:GroundReflectance,  0.20,  0.20,  0.20,  0.20,  0.20,  0.20,  0.20,  0.20,  0.20,  0.20,  0.20,  0.20
! <Site:GroundReflectance:SnowModifier>, Normal, Daylighting {dimensionless}
 Site:GroundReflectance:SnowModifier,   1.000,   1.000
! <Site:GroundReflectance:Snow>,Jan{dimensionless},Feb{dimensionless},Mar{dimensionless},Apr{dimensionless},May{dimensionless},Jun{dimensionless},Jul{dimensionless},Aug{dimensionless},Sep{dimensionless},Oct{dimensionless},Nov{dimensionless},Dec{dimensionless}
 Site:GroundReflectance:Snow,  0.20,  0.20,  0.20,  0.20,  0.20,  0.20,  0.20,  0.20,  0.20,  0.20,  0.20,  0.20
! <Site:GroundReflectance:Snow:Daylighting>,Jan{dimensionless},Feb{dimensionless},Mar{dimensionless},Apr{dimensionless},May{dimensionless},Jun{dimensionless},Jul{dimensionless},Aug{dimensionless},Sep{dimensionless},Oct{dimensionless},Nov{dimensionless},Dec{dimensionless}
 Site:GroundReflectance:Snow:Daylighting,  0.20,  0.20,  0.20,  0.20,  0.20,  0.20,  0.20,  0.20,  0.20,  0.20,  0.20,  0.20
! <Environment:Weather Station>,Wind Sensor Height Above Ground {m},Wind Speed Profile Exponent {},Wind Speed Profile Boundary Layer Thickness {m},Air Temperature Sensor Height Above Ground {m},Wind Speed Modifier Coefficient-Internal,Temperature Modifier Coefficient-Internal
Environment:Weather Station,10.000,0.140,270.000,1.500,1.586,9.750E-003
! <Site:Location>, Location Name, Latitude {N+/S- Deg}, Longitude {E+/W- Deg},  Time Zone Number {GMT+/-}, Elevation {m},  Standard Pressure at Elevation {Pa}, Standard RhoAir at Elevation
Site:Location,Chicago Ohare Intl Ap IL USA TMY3 WMO#=725300,41.98,-87.92,-6.00,201.00,98934,1.1759
! <Site Water Mains Temperature Information>,Calculation Method{},Water Mains Temperature Schedule Name{},Annual Average Outdoor Air Temperature{C},Maximum Difference In Monthly Average Outdoor Air Temperatures{deltaC},Fixed Default Water Mains Temperature{C}
Site Water Mains Temperature Information,FixedDefault,NA,NA,NA,10.0
! <Building Information>, Building Name,North Axis {deg},Terrain,  Loads Convergence Tolerance Value,Temperature Convergence Tolerance Value,  Solar Distribution,Maximum Number of Warmup Days,Minimum Number of Warmup Days
 Building Information,NONE,0.000,Suburbs,4.00000E-002,0.40000,FullInteriorAndExterior,25,6
! <Inside Convection Algorithm>, Algorithm {Simple | TARP | CeilingDiffuser | AdaptiveConvectionAlgorithm}
Inside Convection Algorithm,TARP
! <Outside Convection Algorithm>, Algorithm {SimpleCombined | TARP | MoWitt | DOE-2 | AdaptiveConvectionAlgorithm}
Outside Convection Algorithm,DOE-2
! <Sky Radiance Distribution>, Value {Anisotropic}
Sky Radiance Distribution,Anisotropic
! <Zone Air Solution Algorithm>, Value {ThirdOrderBackwardDifference | AnalyticalSolution | EulerMethod}
 Zone Air Solution Algorithm, ThirdOrderBackwardDifference
! <Zone Air Carbon Dioxide Balance Simulation>, Simulation {Yes/No}, Carbon Dioxide Concentration
 Zone Air Carbon Dioxide Balance Simulation, No,N/A
! <Zone Air Generic Contaminant Balance Simulation>, Simulation {Yes/No}, Generic Contaminant Concentration
 Zone Air Generic Contaminant Balance Simulation, No,N/A
! <Zone Air Mass Flow Balance Simulation>, Enforce Mass Balance, Adjust Zone Mixing, Adjust Zone Infiltration {AddInfiltration | AdjustInfiltration | None}, Infiltration Zones {MixingSourceZonesOnly | AllZones}
 Zone Air Mass Flow Balance Simulation, No,N/A,N/A,N/A
! <HVACSystemRootFindingAlgorithm>, Value {RegulaFalsi | Bisection | BisectionThenRegulaFalsi | RegulaFalsiThenBisection}
 HVACSystemRootFindingAlgorithm, RegulaFalsi
! <Environment:Site Atmospheric Variation>,Wind Speed Profile Exponent {},Wind Speed Profile Boundary Layer Thickness {m},Air Temperature Gradient Coefficient {K/m}
Environment:Site Atmospheric Variation,0.220,370.000,6.500000E-003
! <Surface Geometry>,Starting Corner,Vertex Input Direction,Coordinate System,Daylight Reference Point Coordinate System,Rectangular (Simple) Surface Coordinate System
 Surface Geometry,UpperLeftCorner,Counterclockwise,WorldCoordinateSystem,RelativeCoordinateSystem,RelativeToZoneOrigin
! <Surface Heat Transfer Algorithm>, Value {CTF - ConductionTransferFunction | EMPD - MoisturePenetrationDepthConductionTransferFunction | CondFD - ConductionFiniteDifference | HAMT - CombinedHeatAndMoistureFiniteElement} - Description,Inside Surface Max Temperature Limit{C}, Surface Convection Coefficient Lower Limit {W/m2-K}, Surface Convection Coefficient Upper Limit {W/m2-K}
Surface Heat Transfer Algorithm, CTF - ConductionTransferFunction,200,0.10,1000.0
! <Shading Summary>, Number of Fixed Detached Shades, Number of Building Detached Shades, Number of Attached Shades
 Shading Summary,0,0,0
! <Zone Summary>, Number of Zones, Number of Zone Surfaces, Number of SubSurfaces
 Zone Summary,3,21,1
! <Zone Information>,Zone Name,North Axis {deg},Origin X-Coordinate {m},Origin Y-Coordinate {m},Origin Z-Coordinate {m},Centroid X-Coordinate {m},Centroid Y-Coordinate {m},Centroid Z-Coordinate {m},Type,Zone Multiplier,Zone List Multiplier,Minimum X {m},Maximum X {m},Minimum Y {m},Maximum Y {m},Minimum Z {m},Maximum Z {m},Ceiling Height {m},Volume {m3},Zone Inside Convection Algorithm {Simple-Detailed-CeilingDiffuser-TrombeWall},Zone Outside Convection Algorithm {Simple-Detailed-Tarp-MoWitt-DOE-2-BLAST}, Floor Area {m2},Exterior Gross Wall Area {m2},Exterior Net Wall Area {m2},Exterior Window Area {m2}, Number of Surfaces, Number of SubSurfaces, Number of Shading SubSurfaces,  Part of Total Building Area
 Zone Information, WEST ZONE,0.0,0.00,0.00,0.00,3.05,3.05,1.52,1,1,1,0.00,6.10,0.00,6.10,0.00,3.05,3.05,113.27,TARP,DOE-2,37.16,37.16,27.16,10.00,6,1,0,Yes
 Zone Information, EAST ZONE,0.0,0.00,0.00,0.00,9.14,3.05,1.52,1,1,1,6.10,12.19,0.00,6.10,0.00,3.05,3.05,113.27,TARP,DOE-2,37.16,46.45,46.45,0.00,7,0,0,Yes
 Zone Information, NORTH ZONE,0.0,0.00,0.00,0.00,4.57,9.14,1.52,1,1,1,0.00,9.14,6.10,12.19,0.00,3.05,3.05,169.90,TARP,DOE-2,55.74,65.03,65.03,0.00,7,0,0,Yes
! <Zone Internal Gains Nominal>,Zone Name, Floor Area {m2},# Occupants,Area per Occupant {m2/person},Occupant per Area {person/m2},Interior Lighting {W/m2},Electric Load {W/m2},Gas Load {W/m2},Other Load {W/m2},Hot Water Eq {W/m2},Steam Equipment {W/m2},Sum Loads per Area {W/m2},Outdoor Controlled Baseboard Heat
 Zone Internal Gains Nominal, WEST ZONE,37.16,6.0,6.194,0.161,0.000,78.812,0.000,0.000,0.000,0.000,78.812,No
 Zone Internal Gains Nominal, EAST ZONE,37.16,6.0,6.194,0.161,39.406,39.406,0.000,0.000,0.000,0.000,78.812,No
 Zone Internal Gains Nominal, NORTH ZONE,55.74,8.0,6.968,0.144,15.762,52.541,0.000,0.000,0.000,0.000,68.304,No
! <People Internal Gains Nominal>,Name,Schedule Name,Zone Name,Zone Floor Area {m2},# Zone Occupants,Number of People {},People/Floor Area {person/m2},Floor Area per person {m2/person},Fraction Radiant,Fraction Convected,Sensible Fraction Calculation,Activity level,ASHRAE 55 Warnings,Carbon Dioxide Generation Rate,Nominal Minimum Number of People,Nominal Maximum Number of People,MRT Calculation Type,Work Efficiency, Clothing Insulation Calculation Method,Clothing Insulation Calculation Method Schedule,Clothing,Air Velocity,Fanger Calculation,Pierce Calculation,KSU Calculation
 People Internal Gains Nominal, WESTPEOPLE,OFFICE OCCUPANCY,WEST ZONE,37.16,6.0,6.0,0.161,6.194,0.300,0.700,AutoCalculate,ACTIVITY SCH,No,3.8200E-008,0,6,Zone Averaged,WORK EFF SCH,Clothing Insulation Schedule,N/A,CLOTHING SCH,AIR VELO SCH,Yes,No,No
 People Internal Gains Nominal, EASTPEOPLE,OFFICE OCCUPANCY,EAST ZONE,37.16,6.0,6.0,0.161,6.194,0.300,0.700,AutoCalculate,ACTIVITY SCH,No,3.8200E-008,0,6,Zone Averaged,WORK EFF SCH,Clothing Insulation Schedule,N/A,CLOTHING SCH,AIR VELO SCH,Yes,No,No
 People Internal Gains Nominal, NORTHPEOPLE,OFFICE OCCUPANCY,NORTH ZONE,55.74,8.0,8.0,0.144,6.968,0.300,0.700,AutoCalculate,ACTIVITY SCH,No,3.8200E-008,0,8,Zone Averaged,WORK EFF SCH,Clothing Insulation Schedule,N/A,CLOTHING SCH,AIR VELO SCH,Yes,No,No
! <Lights Internal Gains Nominal>,Name,Schedule Name,Zone Name,Zone Floor Area {m2},# Zone Occupants,Lighting Level {W},Lights/Floor Area {W/m2},Lights per person {W/person},Fraction Return Air,Fraction Radiant,Fraction Short Wave,Fraction Convected,Fraction Replaceable,End-Use Category,Nominal Minimum Lighting Level {W},Nominal Maximum Lighting Level {W}
 Lights Internal Gains Nominal, EAST ZONE LIGHTS 1,OFFICE LIGHTING,EAST ZONE,37.16,6.0,1464.375,39.406,244.063,0.000,0.200,0.200,0.600,0.000,GeneralLights,73.219,1464.375
 Lights Internal Gains Nominal, NORTH ZONE LIGHTS 1,OFFICE LIGHTING,NORTH ZONE,55.74,8.0,878.625,15.762,109.828,0.000,0.200,0.200,0.600,0.000,GeneralLights,43.931,878.625
! <ElectricEquipment Internal Gains Nominal>,Name,Schedule Name,Zone Name,Zone Floor Area {m2},# Zone Occupants,Equipment Level {W},Equipment/Floor Area {W/m2},Equipment per person {W/person},Fraction Latent,Fraction Radiant,Fraction Lost,Fraction Convected,End-Use SubCategory,Nominal Minimum Equipment Level {W},Nominal Maximum Equipment Level {W}
 ElectricEquipment Internal Gains Nominal, WEST ZONE ELECEQ 1,INTERMITTENT,WEST ZONE,37.16,6.0,2928.751,78.812,488.125,0.000,0.300,0.000,0.700,General,0.000,2928.751
 ElectricEquipment Internal Gains Nominal, EAST ZONE ELECEQ 1,INTERMITTENT,EAST ZONE,37.16,6.0,1464.375,39.406,244.063,0.000,0.300,0.000,0.700,General,0.000,1464.375
 ElectricEquipment Internal Gains Nominal, NORTH ZONE ELECEQ 1,INTERMITTENT,NORTH ZONE,55.74,8.0,2928.751,52.541,366.094,0.000,0.300,0.000,0.700,General,0.000,2928.751
! <Shadowing/Sun Position Calculations Annual Simulations>, Calculation Method, Value {days}, Allowable Number Figures in Shadow Overlap {}, Polygon Clipping Algorithm, Sky Diffuse Modeling Algorithm, External Shading Calculation Method, Output External Shading Calculation Results, Disable Self-Shading Within Shading Zone Groups, Disable Self-Shading From Shading Zone Groups to Other Zones
Shadowing/Sun Position Calculations Annual Simulations,AverageOverDaysInFrequency,20,15000,SutherlandHodgman,SimpleSkyDiffuseModeling,InternalCalculation,No,No,No
! <RoomAir Model>, Zone Name, Mixing/Mundt/UCSDDV/UCSDCV/UCSDUFI/UCSDUFE/User Defined
RoomAir Model,WEST ZONE,Mixing/Well-Stirred
RoomAir Model,EAST ZONE,Mixing/Well-Stirred
RoomAir Model,NORTH ZONE,Mixing/Well-Stirred
! <AirflowNetwork Model:Control>, No Multizone or Distribution/Multizone with Distribution/Multizone without Distribution/Multizone with Distribution only during Fan Operation
AirflowNetwork Model:Control,NoMultizoneOrDistribution
! <Zone Volume Capacitance Multiplier>, Sensible Heat Capacity Multiplier, Moisture Capacity Multiplier, Carbon Dioxide Capacity Multiplier, Generic Contaminant Capacity Multiplier
Zone Volume Capacitance Multiplier,   1.000 ,   1.000,   1.000,   1.000
! <Component Sizing Information>, Component Type, Component Name, Input Field Description, Value
 Component Sizing Information, AirTerminal:SingleDuct:Uncontrolled, ZONE1DIRECTAIR, User-Specified Maximum Air Flow Rate [m3/s], 0.61200
 Component Sizing Information, AirTerminal:SingleDuct:Uncontrolled, ZONE2DIRECTAIR, User-Specified Maximum Air Flow Rate [m3/s], 0.47600
 Component Sizing Information, AirTerminal:SingleDuct:Uncontrolled, ZONE3DIRECTAIR, User-Specified Maximum Air Flow Rate [m3/s], 0.61200
!<Controller:MechanicalVentilation>,Name,Availability Schedule Name,Demand Controlled Ventilation {Yes/No},System Outdoor Air Method,Zone Maximum Outdoor Air Fraction,Number of Zones,Zone Name,DSOA Name,DSZAD Name
 Controller:MechanicalVentilation,DCVOBJECT,VENTSCHEDULE,Yes,ZoneSum,1.00,3,WEST ZONE,CM DSOA WEST ZONE,CM DSZAD WEST ZONE,EAST ZONE,CM DSOA DCV ZONE LIST,CM DSZAD DCV ZONE LIST,NORTH ZONE,CM DSOA DCV ZONE LIST,CM DSZAD DCV ZONE LIST
 Component Sizing Information, Coil:Cooling:DX:SingleSpeed, HEAT PUMP ACDXCOIL 1, User-Specified Rated Air Flow Rate [m3/s], 1.70000
 Component Sizing Information, Coil:Cooling:DX:SingleSpeed, HEAT PUMP ACDXCOIL 1, User-Specified Gross Rated Total Cooling Capacity [W], 32000.00000
 Component Sizing Information, Coil:Cooling:DX:SingleSpeed, HEAT PUMP ACDXCOIL 1, User-Specified Gross Rated Sensible Heat Ratio, 0.75000
! <DX Cooling Coil Standard Rating Information>, Component Type, Component Name, Standard Rating (Net) Cooling Capacity {W}, Standard Rated Net COP {W/W}, EER {Btu/W-h}, SEER {Btu/W-h}, IEER {Btu/W-h}
 DX Cooling Coil Standard Rating Information, Coil:Cooling:DX:SingleSpeed, HEAT PUMP ACDXCOIL 1, 30665.3, 2.56, 8.73, 9.17, 8.91
 Component Sizing Information, AirLoopHVAC:UnitaryHeatPump:AirToAir, DXAC HEAT PUMP 1, Fraction of Supply Air Flow That Goes Through the Controlling Zone, 0.28000
 Component Sizing Information, Fan:OnOff, SUPPLY FAN 1, User-Specified Maximum Flow Rate [m3/s], 1.70000
 Component Sizing Information, Coil:Heating:DX:SingleSpeed, HEAT PUMP DX HEATING COIL 1, User-Specified Rated Air Flow Rate [m3/s], 1.70000
 Component Sizing Information, Coil:Heating:DX:SingleSpeed, HEAT PUMP DX HEATING COIL 1, User-Specified Gross Rated Heating Capacity [W], 35000.00000
 Component Sizing Information, Coil:Heating:DX:SingleSpeed, HEAT PUMP DX HEATING COIL 1, Design Size Resistive Defrost Heater Capacity [W], 32000.00000
 Component Sizing Information, Coil:Heating:DX:SingleSpeed, HEAT PUMP DX HEATING COIL 1, User-Specified Resistive Defrost Heater Capacity [W], 20000.00000
! <DX Heating Coil Standard Rating Information>, Component Type, Component Name, High Temperature Heating (net) Rating Capacity {W}, Low Temperature Heating (net) Rating Capacity {W}, HSPF {Btu/W-h}, Region Number
 DX Heating Coil Standard Rating Information, Coil:Heating:DX:SingleSpeed, HEAT PUMP DX HEATING COIL 1, 36357.0, 20106.7, 6.17, 4
 Component Sizing Information, Coil:Heating:Fuel, HEAT PUMP DX SUPP HEATING COIL 1, User-Specified Nominal Capacity [W], 32000.00000
! <Environment>,Environment Name,Environment Type, Start Date, End Date, Start DayOfWeek, Duration {#days}, Source:Start DayOfWeek,  Use Daylight Saving, Use Holidays, Apply Weekend Holiday Rule,  Use Rain Values, Use Snow Values
! <Environment:Special Days>, Special Day Name, Special Day Type, Source, Start Date, Duration {#days}
! <Environment:Daylight Saving>, Daylight Saving Indicator, Source, Start Date, End Date
! <Environment:WarmupDays>, NumberofWarmupDays
Environment,RUNPERIOD 1,WeatherFileRunPeriod,01/01/2017,12/31/2017,Sunday,365,Use RunPeriod Specified Day,Yes,Yes,No,Yes,Yes
Environment:Daylight Saving,No,
Environment:WarmupDays,  6
! <Warmup Convergence Information>,Zone Name,Environment Type/Name,Average Warmup Temperature Difference {deltaC},Std Dev Warmup Temperature Difference {deltaC},Max Temperature Pass/Fail Convergence,Min Temperature Pass/Fail Convergence,Average Warmup Load Difference {W},Std Dev Warmup Load Difference {W},Heating Load Pass/Fail Convergence,Cooling Load Pass/Fail Convergence
 Warmup Convergence Information,WEST ZONE,RunPeriod: RUNPERIOD 1,9.4561823982E-002,0.5380825147,Pass,Pass,0.1616589947,0.9890310992,Pass,Pass
 Warmup Convergence Information,EAST ZONE,RunPeriod: RUNPERIOD 1,6.9446546684E-002,0.4695802416,Pass,Pass,7.1065620945E-002,0.4267963299,Pass,Pass
 Warmup Convergence Information,NORTH ZONE,RunPeriod: RUNPERIOD 1,7.3889906264E-002,0.4374871223,Pass,Pass,4.0182126984E-002,0.2149713814,Pass,Pass
! <Program Control Information:Threads/Parallel Sims>, Threading Supported,Maximum Number of Threads, Env Set Threads (OMP_NUM_THREADS), EP Env Set Threads (EP_OMP_NUM_THREADS), IDF Set Threads, Number of Threads Used (Interior Radiant Exchange), Number Nominal Surfaces, Number Parallel Sims
Program Control:Threads/Parallel Sims, No,1, N/A, N/A, N/A, N/A, N/A, N/A
End of Data
