Program Version,EnergyPlus, Version 9.0.0-2ef880da82, YMD=2018.10.23 16:53
! This file shows details about the branches, nodes, and other
! elements of the flow connections.
! This file is intended for use in "debugging" potential problems
! that may also be detected by the program, but may be more easily
! identified by "eye".
! This file is also intended to support software which draws a
! schematic diagram of the HVAC system.
! ===============================================================
! #Nodes,<Number of Unique Nodes>
 #Nodes,12
! <Node>,<NodeNumber>,<Node Name>,<Node Fluid Type>,<# Times Node Referenced After Definition>
 Node,1,ZONE 1 INLET,Air,2
 Node,2,ZONE 2 INLET,Air,2
 Node,3,ZONE 3 INLET,Air,2
 Node,4,ZONE 4 INLET,Air,2
 Node,5,ZONE 1 NODE,Air,0
 Node,6,ZONE 1 OUTLET,Air,0
 Node,7,ZONE 2 NODE,Air,0
 Node,8,ZONE 2 OUTLET,Air,0
 Node,9,ZONE 3 NODE,Air,0
 Node,10,ZONE 3 OUTLET,Air,0
 Node,11,ZONE 4 NODE,Air,0
 Node,12,ZONE 4 OUTLET,Air,0
! ===============================================================
! Suspicious nodes have 0 references.  It is normal for some nodes, however.
! Listing nodes with 0 references (culled from previous list):
! <Suspicious Node>,<NodeNumber>,<Node Name>,<Node Fluid Type>,<# Times Node Referenced After Definition>
 Suspicious Node,5,ZONE 1 NODE,Air,0
 Suspicious Node,6,ZONE 1 OUTLET,Air,0
 Suspicious Node,7,ZONE 2 NODE,Air,0
 Suspicious Node,8,ZONE 2 OUTLET,Air,0
 Suspicious Node,9,ZONE 3 NODE,Air,0
 Suspicious Node,10,ZONE 3 OUTLET,Air,0
 Suspicious Node,11,ZONE 4 NODE,Air,0
 Suspicious Node,12,ZONE 4 OUTLET,Air,0
! ===============================================================
! <#Branch Lists>,<Number of Branch Lists>
 #Branch Lists,0
! <Branch List>,<Branch List Count>,<Branch List Name>,<Loop Name>,<Loop Type>,<Number of Branches>
! <Branch>,<Branch Count>,<Branch Name>,<Loop Name>,<Loop Type>,<Branch Inlet Node Name>,<Branch Outlet Node Name>
! ===============================================================
! <#Supply Air Paths>,<Number of Supply Air Paths>
 #Supply Air Paths,0
! <Supply Air Path>,<Supply Air Path Count>,<Supply Air Path Name>,<AirLoopHVAC Name>
! <#Components on Supply Air Path>,<Number of Components>
! <Supply Air Path Component>,<Component Count>,<Component Type>,<Component Name>,<AirLoopHVAC Name>
! <#Outlet Nodes on Supply Air Path Component>,<Number of Nodes>
! <Supply Air Path Component Nodes>,<Node Count>,<Component Type>,<Component Name>,<Inlet Node Name>,<Outlet Node Name>,<AirLoopHVAC Name>
! ===============================================================
! <#Return Air Paths>,<Number of Return Air Paths>
 #Return Air Paths,0
! <Return Air Path>,<Return Air Path Count>,<Return Air Path Name>,<AirLoopHVAC Name>
! <#Components on Return Air Path>,<Number of Components>
! <Return Air Path Component>,<Component Count>,<Component Type>,<Component Name>,<AirLoopHVAC Name>
! <#Inlet Nodes on Return Air Path Component>,<Number of Nodes>
! <Return Air Path Component Nodes>,<Node Count>,<Component Type>,<Component Name>,<Inlet Node Name>,<Outlet Node Name>,<AirLoopHVAC Name>
! ===============================================================
! #Outdoor Air Nodes,<Number of Outdoor Air Nodes>
 #Outdoor Air Nodes,0
! ===============================================================
! <#Component Sets>,<Number of Component Sets>
 #Component Sets,0
! <Component Set>,<Component Set Count>,<Parent Object Type>,<Parent Object Name>,<Component Type>,<Component Name>,<Inlet Node ID>,<Outlet Node ID>,<Description>
! ===============================================================
! <# Plant Loops>,<Number of Plant Loops>
 #Plant Loops,0
! <Plant Loop>,<Plant Loop Name>,<Loop Type>,<Inlet Node Name>,<Outlet Node Name>,<Branch List>,<Connector List>
! <Plant Loop Connector>,<Connector Type>,<Connector Name>,<Loop Name>,<Loop Type>,<Number of Inlets/Outlets>
! <Plant Loop Connector Branches>,<Connector Node Count>,<Connector Type>,<Connector Name>,<Inlet Branch>,<Outlet Branch>,<Loop Name>,<Loop Type>
! <Plant Loop Connector Nodes>,<Connector Node Count>,<Connector Type>,<Connector Name>,<Inlet Node>,<Outlet Node>,<Loop Name>,<Loop Type>
! <Plant Loop Supply Connection>,<Plant Loop Name>,<Supply Side Outlet Node Name>,<Demand Side Inlet Node Name>
! <Plant Loop Return Connection>,<Plant Loop Name>,<Demand Side Outlet Node Name>,<Supply Side Inlet Node Name>
! ===============================================================
! <# Condenser Loops>,<Number of Condenser Loops>
 #Condenser Loops,0
! <Condenser Loop>,<Condenser Loop Name>,<Loop Type>,<Inlet Node Name>,<Outlet Node Name>,<Branch List>,<Connector List>
! <Condenser Loop Connector>,<Connector Type>,<Connector Name>,<Loop Name>,<Loop Type>,<Number of Inlets/Outlets>
! <Condenser Loop Connector Branches>,<Connector Node Count>,<Connector Type>,<Connector Name>,<Inlet Branch>,<Outlet Branch>,<Loop Name>,<Loop Type>
! <Condenser Loop Connector Nodes>,<Connector Node Count>,<Connector Type>,<Connector Name>,<Inlet Node>,<Outlet Node>,<Loop Name>,<Loop Type>
! <Condenser Loop Supply Connection>,<Condenser Loop Name>,<Supply Side Outlet Node Name>,<Demand Side Inlet Node Name>
! <Condenser Loop Return Connection>,<Condenser Loop Name>,<Demand Side Outlet Node Name>,<Supply Side Inlet Node Name>
! ===============================================================
! <# Controlled Zones>,<Number of Controlled Zones>
 #Controlled Zones,4
! <Controlled Zone>,<Controlled Zone Name>,<Equip List Name>,<Control List Name>,<Zone Node Name>,<# Inlet Nodes>,<# Exhaust Nodes>,<# Return Nodes>
! <Controlled Zone Inlet>,<Inlet Node Count>,<Controlled Zone Name>,<Supply Air Inlet Node Name>,<SD Sys:Cooling/Heating [DD:Cooling] Inlet Node Name>,<DD Sys:Heating Inlet Node Name>
! <Controlled Zone Exhaust>,<Exhaust Node Count>,<Controlled Zone Name>,<Exhaust Air Node Name>
 Controlled Zone,ZONE 1,ZONE 1 EQUIPMENT,,ZONE 1 NODE,1,0,1
   Controlled Zone Inlet,1,ZONE 1,ZONE 1 INLET,Undefined,N/A
   Controlled Zone Return,1,ZONE 1,ZONE 1 OUTLET
 Controlled Zone,ZONE 2,ZONE 2 EQUIPMENT,,ZONE 2 NODE,1,0,1
   Controlled Zone Inlet,1,ZONE 2,ZONE 2 INLET,Undefined,N/A
   Controlled Zone Return,1,ZONE 2,ZONE 2 OUTLET
 Controlled Zone,ZONE 3,ZONE 3 EQUIPMENT,,ZONE 3 NODE,1,0,1
   Controlled Zone Inlet,1,ZONE 3,ZONE 3 INLET,Undefined,N/A
   Controlled Zone Return,1,ZONE 3,ZONE 3 OUTLET
 Controlled Zone,ZONE 4,ZONE 4 EQUIPMENT,,ZONE 4 NODE,1,0,1
   Controlled Zone Inlet,1,ZONE 4,ZONE 4 INLET,Undefined,N/A
   Controlled Zone Return,1,ZONE 4,ZONE 4 OUTLET
! ===============================================================
! <#Zone Equipment Lists>,<Number of Zone Equipment Lists>
 #Zone Equipment Lists,4
! <Zone Equipment List>,<Zone Equipment List Count>,<Zone Equipment List Name>,<Zone Name>,<Number of Components>
! <Zone Equipment Component>,<Component Count>,<Component Type>,<Component Name>,<Zone Name>,<Heating Priority>,<Cooling Priority>
 Zone Equipment List,1,ZONE 1 EQUIPMENT,ZONE 1,1
   Zone Equipment Component,1,ZONEHVAC:IDEALLOADSAIRSYSTEM,ZONE 1 IDEAL LOADS,ZONE 1,1,1
 Zone Equipment List,2,ZONE 2 EQUIPMENT,ZONE 2,1
   Zone Equipment Component,1,ZONEHVAC:IDEALLOADSAIRSYSTEM,ZONE 2 IDEAL LOADS,ZONE 2,1,1
 Zone Equipment List,3,ZONE 3 EQUIPMENT,ZONE 3,1
   Zone Equipment Component,1,ZONEHVAC:IDEALLOADSAIRSYSTEM,ZONE 3 IDEAL LOADS,ZONE 3,1,1
 Zone Equipment List,4,ZONE 4 EQUIPMENT,ZONE 4,1
   Zone Equipment Component,1,ZONEHVAC:IDEALLOADSAIRSYSTEM,ZONE 4 IDEAL LOADS,ZONE 4,1,1
! ===============================================================
! <#AirLoopHVACs>,<Number of AirLoopHVACs>
 #AirLoopHVACs,0
! <AirLoopHVAC>,<Air Loop Name>,<# Return Nodes>,<# Supply Nodes>,<# Zones Cooled>,<# Zones Heated>,<Outdoor Air Used>
! <AirLoop Return Connections>,<Connection Count>,<AirLoopHVAC Name>,<Zn Eqp Return Node #>,<Zn Eqp Return Node Name>,<AirLoop Return Node #>,<Air Loop Return Node Name>
! <AirLoop Supply Connections>,<Connection Count>,<AirLoopHVAC Name>,<Zn Eqp Supply Node #>,<Zn Eqp Supply Node Name>,<AirLoop Supply Node #>,<Air Loop Supply Node Name>
! <Cooled Zone Info>,<Cooled Zone Count>,<Cooled Zone Name>,<Cooled Zone Inlet Node #>,<Cooled Zone Inlet Node Name>,<AirLoopHVAC Name>
! <Heated Zone Info>,<Heated Zone Count>,<Heated Zone Name>,<Heated Zone Inlet Node #>,<Heated Zone Inlet Node Name>,<AirLoopHVAC Name>
! <Outdoor Air Connections>,<OA Inlet Node #>,<OA Return Air Inlet Node Name>,<OA Outlet Node #>,<OA Mixed Air Outlet Node Name>,<AirLoopHVAC Name>
! <AirLoopHVAC Connector>,<Connector Type>,<Connector Name>,<Loop Name>,<Loop Type>,<Number of Inlets/Outlets>
! <AirLoopHVAC Connector Branches>,<Connector Node Count>,<Connector Type>,<Connector Name>,<Inlet Branch>,<Outlet Branch>,<Loop Name>,<Loop Type>
! <AirLoopHVAC Connector Nodes>,<Connector Node Count>,<Connector Type>,<Connector Name>,<Inlet Node>,<Outlet Node>,<Loop Name>,<Loop Type>
! ===============================================================
! <#Parent Node Connections>,<Number of Parent Node Connections>
 #Parent Node Connections,0
! <Parent Node Connection>,<Node Name>,<Node ObjectType>,<Node ObjectName>,<Node ConnectionType>,<Node FluidStream>
! ===============================================================
! <#Non-Parent Node Connections>,<Number of Non-Parent Node Connections>
 #Non-Parent Node Connections,16
! <Non-Parent Node Connection>,<Node Name>,<Node ObjectType>,<Node ObjectName>,<Node ConnectionType>,<Node FluidStream>
 Non-Parent Node Connection,ZONE 1 NODE,ZONEHVAC:EQUIPMENTCONNECTIONS,ZONE 1,ZoneNode,1
 Non-Parent Node Connection,ZONE 1 INLET,ZONEHVAC:EQUIPMENTCONNECTIONS,ZONE 1,ZoneInlet,1
 Non-Parent Node Connection,ZONE 1 OUTLET,ZONEHVAC:EQUIPMENTCONNECTIONS,ZONE 1,ZoneReturn,1
 Non-Parent Node Connection,ZONE 2 NODE,ZONEHVAC:EQUIPMENTCONNECTIONS,ZONE 2,ZoneNode,1
 Non-Parent Node Connection,ZONE 2 INLET,ZONEHVAC:EQUIPMENTCONNECTIONS,ZONE 2,ZoneInlet,1
 Non-Parent Node Connection,ZONE 2 OUTLET,ZONEHVAC:EQUIPMENTCONNECTIONS,ZONE 2,ZoneReturn,1
 Non-Parent Node Connection,ZONE 3 NODE,ZONEHVAC:EQUIPMENTCONNECTIONS,ZONE 3,ZoneNode,1
 Non-Parent Node Connection,ZONE 3 INLET,ZONEHVAC:EQUIPMENTCONNECTIONS,ZONE 3,ZoneInlet,1
 Non-Parent Node Connection,ZONE 3 OUTLET,ZONEHVAC:EQUIPMENTCONNECTIONS,ZONE 3,ZoneReturn,1
 Non-Parent Node Connection,ZONE 4 NODE,ZONEHVAC:EQUIPMENTCONNECTIONS,ZONE 4,ZoneNode,1
 Non-Parent Node Connection,ZONE 4 INLET,ZONEHVAC:EQUIPMENTCONNECTIONS,ZONE 4,ZoneInlet,1
 Non-Parent Node Connection,ZONE 4 OUTLET,ZONEHVAC:EQUIPMENTCONNECTIONS,ZONE 4,ZoneReturn,1
 Non-Parent Node Connection,ZONE 1 INLET,ZONEHVAC:IDEALLOADSAIRSYSTEM,ZONE 1 IDEAL LOADS,Outlet,1
 Non-Parent Node Connection,ZONE 2 INLET,ZONEHVAC:IDEALLOADSAIRSYSTEM,ZONE 2 IDEAL LOADS,Outlet,1
 Non-Parent Node Connection,ZONE 3 INLET,ZONEHVAC:IDEALLOADSAIRSYSTEM,ZONE 3 IDEAL LOADS,Outlet,1
 Non-Parent Node Connection,ZONE 4 INLET,ZONEHVAC:IDEALLOADSAIRSYSTEM,ZONE 4 IDEAL LOADS,Outlet,1
