Program Version,EnergyPlus, Version 9.0.0-2ef880da82, YMD=2018.10.23 18:20
! <Version>, Version ID
 Version, 9.0
! <Timesteps per Hour>, #TimeSteps, Minutes per TimeStep {minutes}
 Timesteps per Hour,  4, 15
! <System Convergence Limits>, Minimum System TimeStep {minutes}, Max HVAC Iterations, Minimum Plant Iterations, Maximum Plant Iterations
 System Convergence Limits, 5, 25, 5, 10
! <Simulation Control>, Do Zone Sizing, Do System Sizing, Do Plant Sizing, Do Design Days, Do Weather Simulation, Do HVAC Sizing Simulation
 Simulation Control, Yes, Yes, Yes, No, Yes, No
! <Output Reporting Tolerances>, Tolerance for Time Heating Setpoint Not Met, Tolerance for Zone Cooling Setpoint Not Met Time
 Output Reporting Tolerances, 0.200, 0.200, 
! <Site:GroundTemperature:BuildingSurface>,Jan{C},Feb{C},Mar{C},Apr{C},May{C},Jun{C},Jul{C},Aug{C},Sep{C},Oct{C},Nov{C},Dec{C}
 Site:GroundTemperature:BuildingSurface,  19.96,  19.94,  19.99,  20.04,  20.09,  20.17,  20.21,  20.24,  20.23,  20.20,  20.17,  20.12
! <Site:GroundTemperature:FCfactorMethod>,Jan{C},Feb{C},Mar{C},Apr{C},May{C},Jun{C},Jul{C},Aug{C},Sep{C},Oct{C},Nov{C},Dec{C}
 Site:GroundTemperature:FCfactorMethod,  -1.89,  -3.06,  -0.99,   2.23,  10.68,  17.20,  21.60,  22.94,  20.66,  15.60,   8.83,   2.56
! <Site:GroundTemperature:Shallow>,Jan{C},Feb{C},Mar{C},Apr{C},May{C},Jun{C},Jul{C},Aug{C},Sep{C},Oct{C},Nov{C},Dec{C}
 Site:GroundTemperature:Shallow,  13.00,  13.00,  13.00,  13.00,  13.00,  13.00,  13.00,  13.00,  13.00,  13.00,  13.00,  13.00
! <Site:GroundTemperature:Deep>,Jan{C},Feb{C},Mar{C},Apr{C},May{C},Jun{C},Jul{C},Aug{C},Sep{C},Oct{C},Nov{C},Dec{C}
 Site:GroundTemperature:Deep,  16.00,  16.00,  16.00,  16.00,  16.00,  16.00,  16.00,  16.00,  16.00,  16.00,  16.00,  16.00
! <Site:GroundReflectance>,Jan{dimensionless},Feb{dimensionless},Mar{dimensionless},Apr{dimensionless},May{dimensionless},Jun{dimensionless},Jul{dimensionless},Aug{dimensionless},Sep{dimensionless},Oct{dimensionless},Nov{dimensionless},Dec{dimensionless}
 Site:GroundReflectance,  0.20,  0.20,  0.20,  0.20,  0.20,  0.20,  0.20,  0.20,  0.20,  0.20,  0.20,  0.20
! <Site:GroundReflectance:SnowModifier>, Normal, Daylighting {dimensionless}
 Site:GroundReflectance:SnowModifier,   1.000,   1.000
! <Site:GroundReflectance:Snow>,Jan{dimensionless},Feb{dimensionless},Mar{dimensionless},Apr{dimensionless},May{dimensionless},Jun{dimensionless},Jul{dimensionless},Aug{dimensionless},Sep{dimensionless},Oct{dimensionless},Nov{dimensionless},Dec{dimensionless}
 Site:GroundReflectance:Snow,  0.20,  0.20,  0.20,  0.20,  0.20,  0.20,  0.20,  0.20,  0.20,  0.20,  0.20,  0.20
! <Site:GroundReflectance:Snow:Daylighting>,Jan{dimensionless},Feb{dimensionless},Mar{dimensionless},Apr{dimensionless},May{dimensionless},Jun{dimensionless},Jul{dimensionless},Aug{dimensionless},Sep{dimensionless},Oct{dimensionless},Nov{dimensionless},Dec{dimensionless}
 Site:GroundReflectance:Snow:Daylighting,  0.20,  0.20,  0.20,  0.20,  0.20,  0.20,  0.20,  0.20,  0.20,  0.20,  0.20,  0.20
! <Environment:Weather Station>,Wind Sensor Height Above Ground {m},Wind Speed Profile Exponent {},Wind Speed Profile Boundary Layer Thickness {m},Air Temperature Sensor Height Above Ground {m},Wind Speed Modifier Coefficient-Internal,Temperature Modifier Coefficient-Internal
Environment:Weather Station,10.000,0.140,270.000,1.500,1.586,9.750E-003
! <Site:Location>, Location Name, Latitude {N+/S- Deg}, Longitude {E+/W- Deg},  Time Zone Number {GMT+/-}, Elevation {m},  Standard Pressure at Elevation {Pa}, Standard RhoAir at Elevation
Site:Location,Chicago Ohare Intl Ap IL USA TMY3 WMO#=725300,41.98,-87.92,-6.00,201.00,98934,1.1759
! <Site Water Mains Temperature Information>,Calculation Method{},Water Mains Temperature Schedule Name{},Annual Average Outdoor Air Temperature{C},Maximum Difference In Monthly Average Outdoor Air Temperatures{deltaC},Fixed Default Water Mains Temperature{C}
Site Water Mains Temperature Information,Correlation,NA,9.69,28.10,NA
! <Building Information>, Building Name,North Axis {deg},Terrain,  Loads Convergence Tolerance Value,Temperature Convergence Tolerance Value,  Solar Distribution,Maximum Number of Warmup Days,Minimum Number of Warmup Days
 Building Information,5-zoneVAV,0.000,City,4.00000E-002,0.20000,FullInteriorAndExterior,25,6
! <Inside Convection Algorithm>, Algorithm {Simple | TARP | CeilingDiffuser | AdaptiveConvectionAlgorithm}
Inside Convection Algorithm,TARP
! <Outside Convection Algorithm>, Algorithm {SimpleCombined | TARP | MoWitt | DOE-2 | AdaptiveConvectionAlgorithm}
Outside Convection Algorithm,DOE-2
! <Sky Radiance Distribution>, Value {Anisotropic}
Sky Radiance Distribution,Anisotropic
! <Zone Air Solution Algorithm>, Value {ThirdOrderBackwardDifference | AnalyticalSolution | EulerMethod}
 Zone Air Solution Algorithm, ThirdOrderBackwardDifference
! <Zone Air Carbon Dioxide Balance Simulation>, Simulation {Yes/No}, Carbon Dioxide Concentration
 Zone Air Carbon Dioxide Balance Simulation, No,N/A
! <Zone Air Generic Contaminant Balance Simulation>, Simulation {Yes/No}, Generic Contaminant Concentration
 Zone Air Generic Contaminant Balance Simulation, No,N/A
! <Zone Air Mass Flow Balance Simulation>, Enforce Mass Balance, Adjust Zone Mixing, Adjust Zone Infiltration {AddInfiltration | AdjustInfiltration | None}, Infiltration Zones {MixingSourceZonesOnly | AllZones}
 Zone Air Mass Flow Balance Simulation, No,N/A,N/A,N/A
! <HVACSystemRootFindingAlgorithm>, Value {RegulaFalsi | Bisection | BisectionThenRegulaFalsi | RegulaFalsiThenBisection}
 HVACSystemRootFindingAlgorithm, RegulaFalsi
! <Environment:Site Atmospheric Variation>,Wind Speed Profile Exponent {},Wind Speed Profile Boundary Layer Thickness {m},Air Temperature Gradient Coefficient {K/m}
Environment:Site Atmospheric Variation,0.330,460.000,6.500000E-003
! <Surface Geometry>,Starting Corner,Vertex Input Direction,Coordinate System,Daylight Reference Point Coordinate System,Rectangular (Simple) Surface Coordinate System
 Surface Geometry,UpperLeftCorner,Counterclockwise,RelativeCoordinateSystem,RelativeCoordinateSystem,RelativeToZoneOrigin
! <Surface Heat Transfer Algorithm>, Value {CTF - ConductionTransferFunction | EMPD - MoisturePenetrationDepthConductionTransferFunction | CondFD - ConductionFiniteDifference | HAMT - CombinedHeatAndMoistureFiniteElement} - Description,Inside Surface Max Temperature Limit{C}, Surface Convection Coefficient Lower Limit {W/m2-K}, Surface Convection Coefficient Upper Limit {W/m2-K}
Surface Heat Transfer Algorithm, CTF - ConductionTransferFunction,200,0.10,1000.0
! <Shading Summary>, Number of Fixed Detached Shades, Number of Building Detached Shades, Number of Attached Shades
 Shading Summary,0,0,6
! <Zone Summary>, Number of Zones, Number of Zone Surfaces, Number of SubSurfaces
 Zone Summary,5,47,12
! <Zone Information>,Zone Name,North Axis {deg},Origin X-Coordinate {m},Origin Y-Coordinate {m},Origin Z-Coordinate {m},Centroid X-Coordinate {m},Centroid Y-Coordinate {m},Centroid Z-Coordinate {m},Type,Zone Multiplier,Zone List Multiplier,Minimum X {m},Maximum X {m},Minimum Y {m},Maximum Y {m},Minimum Z {m},Maximum Z {m},Ceiling Height {m},Volume {m3},Zone Inside Convection Algorithm {Simple-Detailed-CeilingDiffuser-TrombeWall},Zone Outside Convection Algorithm {Simple-Detailed-Tarp-MoWitt-DOE-2-BLAST}, Floor Area {m2},Exterior Gross Wall Area {m2},Exterior Net Wall Area {m2},Exterior Window Area {m2}, Number of Surfaces, Number of SubSurfaces, Number of Shading SubSurfaces,  Part of Total Building Area
 Zone Information, ZN_1_FLR_1_SEC_1,0.0,0.00,0.00,0.00,20.00,2.11,1.90,1,1,1,0.00,40.00,0.00,4.57,0.00,3.80,3.80,615.28,TARP,DOE-2,161.92,152.00,91.20,60.80,6,1,2,Yes
 Zone Information, ZN_1_FLR_1_SEC_2,0.0,40.00,0.00,0.00,38.08,10.00,1.90,1,1,1,35.43,40.00,0.00,20.00,0.00,3.80,3.80,267.96,TARP,DOE-2,70.52,76.00,45.60,30.40,6,1,2,Yes
 Zone Information, ZN_1_FLR_1_SEC_3,0.0,4.57,15.43,0.00,20.00,17.89,1.90,1,1,1,0.00,40.00,15.43,20.00,0.00,3.80,3.80,615.28,TARP,DOE-2,161.92,152.00,91.20,60.80,6,1,0,Yes
 Zone Information, ZN_1_FLR_1_SEC_4,0.0,0.00,0.00,0.00,1.92,10.00,1.90,1,1,1,0.00,4.57,0.00,20.00,0.00,3.80,3.80,267.96,TARP,DOE-2,70.52,76.00,45.60,30.40,6,1,2,Yes
 Zone Information, ZN_1_FLR_1_SEC_5,0.0,4.57,4.57,0.00,20.00,10.00,1.90,1,1,1,4.57,35.43,4.57,15.43,0.00,3.80,3.80,1273.53,TARP,DOE-2,335.14,0.00,0.00,11.89,6,8,0,Yes
! <Zone Internal Gains Nominal>,Zone Name, Floor Area {m2},# Occupants,Area per Occupant {m2/person},Occupant per Area {person/m2},Interior Lighting {W/m2},Electric Load {W/m2},Gas Load {W/m2},Other Load {W/m2},Hot Water Eq {W/m2},Steam Equipment {W/m2},Sum Loads per Area {W/m2},Outdoor Controlled Baseboard Heat
 Zone Internal Gains Nominal, ZN_1_FLR_1_SEC_1,161.92,6.3,25.575,3.910E-002,10.800,16.070,0.000,0.000,0.000,0.000,26.870,No
 Zone Internal Gains Nominal, ZN_1_FLR_1_SEC_2,70.52,2.8,25.576,3.910E-002,10.800,16.070,0.000,0.000,0.000,0.000,26.870,No
 Zone Internal Gains Nominal, ZN_1_FLR_1_SEC_3,161.92,6.3,25.575,3.910E-002,10.800,16.070,0.000,0.000,0.000,0.000,26.870,No
 Zone Internal Gains Nominal, ZN_1_FLR_1_SEC_4,70.52,2.8,25.576,3.910E-002,10.800,16.070,0.000,0.000,0.000,0.000,26.870,No
 Zone Internal Gains Nominal, ZN_1_FLR_1_SEC_5,335.14,13.1,25.575,3.910E-002,10.800,16.070,0.000,0.000,0.000,0.000,26.870,No
! <People Internal Gains Nominal>,Name,Schedule Name,Zone Name,Zone Floor Area {m2},# Zone Occupants,Number of People {},People/Floor Area {person/m2},Floor Area per person {m2/person},Fraction Radiant,Fraction Convected,Sensible Fraction Calculation,Activity level,ASHRAE 55 Warnings,Carbon Dioxide Generation Rate,Nominal Minimum Number of People,Nominal Maximum Number of People,MRT Calculation Type,Work Efficiency, Clothing Insulation Calculation Method,Clothing Insulation Calculation Method Schedule,Clothing,Air Velocity,Fanger Calculation,Pierce Calculation,KSU Calculation
 People Internal Gains Nominal, ZN_1_FLR_1_SEC_1,BLDG_OCC_SCH,ZN_1_FLR_1_SEC_1,161.92,6.3,6.3,3.910E-002,25.575,0.300,0.700,AutoCalculate,ACTIVITY_SCH,No,3.8200E-008,0,6,Zone Averaged,WORK_EFF_SCH,Clothing Insulation Schedule,N/A,CLOTHING_SCH,AIR_VELO_SCH,Yes,No,No
 People Internal Gains Nominal, ZN_1_FLR_1_SEC_2,BLDG_OCC_SCH,ZN_1_FLR_1_SEC_2,70.52,2.8,2.8,3.910E-002,25.576,0.300,0.700,AutoCalculate,ACTIVITY_SCH,No,3.8200E-008,0,3,Zone Averaged,WORK_EFF_SCH,Clothing Insulation Schedule,N/A,CLOTHING_SCH,AIR_VELO_SCH,Yes,No,No
 People Internal Gains Nominal, ZN_1_FLR_1_SEC_3,BLDG_OCC_SCH,ZN_1_FLR_1_SEC_3,161.92,6.3,6.3,3.910E-002,25.575,0.300,0.700,AutoCalculate,ACTIVITY_SCH,No,3.8200E-008,0,6,Zone Averaged,WORK_EFF_SCH,Clothing Insulation Schedule,N/A,CLOTHING_SCH,AIR_VELO_SCH,Yes,No,No
 People Internal Gains Nominal, ZN_1_FLR_1_SEC_4,BLDG_OCC_SCH,ZN_1_FLR_1_SEC_4,70.52,2.8,2.8,3.910E-002,25.576,0.300,0.700,AutoCalculate,ACTIVITY_SCH,No,3.8200E-008,0,3,Zone Averaged,WORK_EFF_SCH,Clothing Insulation Schedule,N/A,CLOTHING_SCH,AIR_VELO_SCH,Yes,No,No
 People Internal Gains Nominal, ZN_1_FLR_1_SEC_5,BLDG_OCC_SCH,ZN_1_FLR_1_SEC_5,335.14,13.1,13.1,3.910E-002,25.575,0.300,0.700,AutoCalculate,ACTIVITY_SCH,No,3.8200E-008,0,13,Zone Averaged,WORK_EFF_SCH,Clothing Insulation Schedule,N/A,CLOTHING_SCH,AIR_VELO_SCH,Yes,No,No
! <Lights Internal Gains Nominal>,Name,Schedule Name,Zone Name,Zone Floor Area {m2},# Zone Occupants,Lighting Level {W},Lights/Floor Area {W/m2},Lights per person {W/person},Fraction Return Air,Fraction Radiant,Fraction Short Wave,Fraction Convected,Fraction Replaceable,End-Use Category,Nominal Minimum Lighting Level {W},Nominal Maximum Lighting Level {W}
 Lights Internal Gains Nominal, ZN_1_FLR_1_SEC_1_LIGHTS,BLDG_LIGHT_SCH,ZN_1_FLR_1_SEC_1,161.92,6.3,1748.683,10.800,276.214,0.000,0.200,0.200,0.600,1.000,General Lights,0.000,1748.683
 Lights Internal Gains Nominal, ZN_1_FLR_1_SEC_2_LIGHTS,BLDG_LIGHT_SCH,ZN_1_FLR_1_SEC_2,70.52,2.8,761.563,10.800,276.219,0.000,0.200,0.200,0.600,1.000,General Lights,0.000,761.563
 Lights Internal Gains Nominal, ZN_1_FLR_1_SEC_3_LIGHTS,BLDG_LIGHT_SCH,ZN_1_FLR_1_SEC_3,161.92,6.3,1748.683,10.800,276.214,0.000,0.200,0.200,0.600,1.000,General Lights,0.000,1748.683
 Lights Internal Gains Nominal, ZN_1_FLR_1_SEC_4_LIGHTS,BLDG_LIGHT_SCH,ZN_1_FLR_1_SEC_4,70.52,2.8,761.563,10.800,276.219,0.000,0.200,0.200,0.600,1.000,General Lights,0.000,761.563
 Lights Internal Gains Nominal, ZN_1_FLR_1_SEC_5_LIGHTS,BLDG_LIGHT_SCH,ZN_1_FLR_1_SEC_5,335.14,13.1,3619.508,10.800,276.214,0.000,0.200,0.200,0.600,1.000,General Lights,0.000,3619.508
! <ElectricEquipment Internal Gains Nominal>,Name,Schedule Name,Zone Name,Zone Floor Area {m2},# Zone Occupants,Equipment Level {W},Equipment/Floor Area {W/m2},Equipment per person {W/person},Fraction Latent,Fraction Radiant,Fraction Lost,Fraction Convected,End-Use SubCategory,Nominal Minimum Equipment Level {W},Nominal Maximum Equipment Level {W}
 ElectricEquipment Internal Gains Nominal, ZN_1_FLR_1_SEC_1_MISCPLUG_EQUIP,BLDG_EQUIP_SCH,ZN_1_FLR_1_SEC_1,161.92,6.3,2601.976,16.070,410.996,0.000,0.500,0.000,0.500,MiscPlug,0.000,2601.976
 ElectricEquipment Internal Gains Nominal, ZN_1_FLR_1_SEC_2_MISCPLUG_EQUIP,BLDG_EQUIP_SCH,ZN_1_FLR_1_SEC_2,70.52,2.8,1133.178,16.070,411.003,0.000,0.500,0.000,0.500,MiscPlug,0.000,1133.178
 ElectricEquipment Internal Gains Nominal, ZN_1_FLR_1_SEC_3_MISCPLUG_EQUIP,BLDG_EQUIP_SCH,ZN_1_FLR_1_SEC_3,161.92,6.3,2601.976,16.070,410.996,0.000,0.500,0.000,0.500,MiscPlug,0.000,2601.976
 ElectricEquipment Internal Gains Nominal, ZN_1_FLR_1_SEC_4_MISCPLUG_EQUIP,BLDG_EQUIP_SCH,ZN_1_FLR_1_SEC_4,70.52,2.8,1133.178,16.070,411.003,0.000,0.500,0.000,0.500,MiscPlug,0.000,1133.178
 ElectricEquipment Internal Gains Nominal, ZN_1_FLR_1_SEC_5_MISCPLUG_EQUIP,BLDG_EQUIP_SCH,ZN_1_FLR_1_SEC_5,335.14,13.1,5385.693,16.070,410.996,0.000,0.500,0.000,0.500,MiscPlug,0.000,5385.693
! <Construction CTF>,Construction Name,Index,#Layers,#CTFs,Time Step {hours},ThermalConductance {w/m2-K},OuterThermalAbsorptance,InnerThermalAbsorptance,OuterSolarAbsorptance,InnerSolarAbsorptance,Roughness
! <Material CTF Summary>,Material Name,Thickness {m},Conductivity {w/m-K},Density {kg/m3},Specific Heat {J/kg-K},ThermalResistance {m2-K/w}
! <Material:Air>,Material Name,ThermalResistance {m2-K/w}
! <CTF>,Time,Outside,Cross,Inside,Flux (except final one)
 Construction CTF,INTERIORFURNISHINGS,   1,   1,   7,   0.250,     0.8000    ,   0.900,   0.900,   0.700,   0.700,MediumSmooth
 Material CTF Summary,STD WOOD 6INCH,  0.1500,         0.120,    540.000,     1210.000,   1.250    
 CTF,   7,     -0.19879948E-01,      0.18371110E-08,     -0.19879948E-01,      0.25920384E-02
 CTF,   6,      0.37833182    ,      0.93111392E-06,      0.37833182    ,     -0.50805208E-01
 CTF,   5,      -2.8822885    ,      0.33090332E-04,      -2.8822885    ,      0.40100636    
 CTF,   4,       11.391948    ,      0.23980383E-03,       11.391948    ,      -1.6521297    
 CTF,   3,      -25.286828    ,      0.46344169E-03,      -25.286828    ,       3.8446603    
 CTF,   2,       31.657742    ,      0.23933549E-03,       31.657742    ,      -5.0707043    
 CTF,   1,      -20.807361    ,      0.25331892E-04,      -20.807361    ,       3.5241279    
 CTF,   0,       5.5693388    ,      0.18852057E-06,       5.5693388    
 Construction CTF,ASHRAE 30PERC GUIDE_ZONE 5_IEAD_ROOF,   7,   3,  10,   0.250,     0.2887    ,   0.900,   0.900,   0.700,   0.700,VeryRough
 Material CTF Summary,ROOF MEMBRANE,  0.0095,         0.160,   1121.290,     1460.000,  0.5938E-01
 Material CTF Summary,ROOF INSULATION [7],  0.1668,         0.049,    265.000,      836.800,   3.404    
 Material CTF Summary,METAL DECKING,  0.0015,        45.006,   7680.000,      418.400,  0.3333E-04
 CTF,  10,      0.45715878E-10,      0.82730005E-11,      0.43173355E-09,     -0.16276731E-17
 CTF,   9,     -0.67209356E-03,     -0.14536235E-10,     -0.17381603E-02,      0.55038941E-10
 CTF,   8,      0.41218446E-01,      0.49355617E-10,      0.52490470E-01,     -0.21937281E-03
 CTF,   7,     -0.71291873    ,      0.65387513E-07,     -0.66065172    ,      0.63192153E-02
 CTF,   6,       5.8951378    ,      0.35922572E-05,       4.5480306    ,     -0.74670688E-01
 CTF,   5,      -27.465175    ,      0.43945437E-04,      -18.873678    ,      0.47234413    
 CTF,   4,       76.917009    ,      0.15676107E-03,       49.002800    ,      -1.7477448    
 CTF,   3,      -131.57697    ,      0.17342251E-03,      -79.750601    ,       3.8722135    
 CTF,   2,       134.08014    ,      0.53410718E-04,       78.681892    ,      -5.0207503    
 CTF,   1,      -74.530268    ,      0.32421962E-05,      -42.860930    ,       3.4910037    
 CTF,   0,       17.352939    ,      0.14995142E-07,       9.8628199    
 Construction CTF,ASHRAE 30PERC GUIDE_ZONE 5_INTERIOR WALL_INT-WALL,   8,   2,   4,   0.250,      6.299    ,   0.900,   0.900,   0.700,   0.700,Smooth
 Material CTF Summary,GP01 1/2 GYPSUM,  0.0127,         0.160,    800.000,     1090.000,  0.7937E-01
 Material CTF Summary,GP01 1/2 GYPSUM,  0.0127,         0.160,    800.000,     1090.000,  0.7937E-01
 CTF,   4,      0.12042566E-13,      0.45929688E-14,      0.12042579E-13,       0.0000000    
 CTF,   3,     -0.90043060E-05,      0.30474453E-05,     -0.90043060E-05,      0.18391453E-13
 CTF,   2,      0.23735444    ,      0.83694685E-01,      0.23735444    ,     -0.65848504E-05
 CTF,   1,      -8.4013897    ,       3.1829864    ,      -8.4013897    ,      0.83534042E-01
 CTF,   0,       13.937100    ,       2.5063712    ,       13.937100    
 Construction CTF,ASHRAE 30PERC GUIDE_ZONE 5_STEEL-FRAMED_EXT-WALL,   9,   3,   8,   0.250,     0.3860    ,   0.900,   0.900,   0.700,   0.920,Rough
 Material CTF Summary,MAT-SHEATH,  0.0000,         0.000,      0.000,        0.000,  0.3626    
 Material CTF Summary,WALL INSULATION [11],  0.0967,         0.045,    265.000,      836.800,   2.149    
 Material CTF Summary,1/2IN GYPSUM,  0.0127,         0.160,    784.900,      830.000,  0.7937E-01
 CTF,   8,      0.13834067E-10,      0.37964611E-14,      0.61338055E-05,     -0.72193150E-14
 CTF,   7,     -0.34434226E-04,      0.15632407E-08,     -0.85533244E-03,      0.35538034E-05
 CTF,   6,      0.18380942E-02,      0.12318168E-05,      0.35307453E-01,     -0.26273903E-03
 CTF,   5,     -0.36722719E-01,      0.86350296E-04,     -0.59216056    ,      0.71036315E-02
 CTF,   4,      0.34868872    ,      0.12111215E-02,       4.6119796    ,     -0.88666789E-01
 CTF,   3,      -1.6663037    ,      0.42239884E-02,      -17.660097    ,      0.53918138    
 CTF,   2,       3.9711185    ,      0.36167616E-02,       33.801706    ,      -1.5817577    
 CTF,   1,      -4.4104504    ,      0.57947213E-03,      -30.851264    ,       2.0992055    
 CTF,   0,       1.8015897    ,      0.49286068E-05,       10.665101    
 Construction CTF,ASHRAE 30PERC GUIDE_ZONE 5_UNHEATED_EXT-SLAB,  10,   2,   7,   0.250,      2.692    ,   0.900,   0.900,   0.700,   0.700,Rough
 Material CTF Summary,MAT-CC05 8 HW CONCRETE,  0.2032,         1.311,   2240.000,      836.800,  0.1550    
 Material CTF Summary,CP02 CARPET PAD,  0.0000,         0.000,      0.000,        0.000,  0.2165    
 CTF,   7,      0.73007622E-15,      0.22923445E-16,     -0.40351002E-08,     -0.83311573E-17
 CTF,   6,      0.83927725E-01,      0.83015600E-07,      0.89488232E-02,     -0.17451062E-02
 CTF,   5,      -1.8685390    ,      0.41136936E-04,     -0.19978971    ,      0.40177775E-01
 CTF,   4,       15.283599    ,      0.91172172E-03,       1.6629766    ,     -0.34407097    
 CTF,   3,      -58.197697    ,      0.43244653E-02,      -6.5540426    ,       1.3917703    
 CTF,   2,       109.30648    ,      0.43603271E-02,       12.932295    ,      -2.8126096    
 CTF,   1,      -97.605324    ,      0.10525637E-02,      -12.241896    ,       2.7225169    
 CTF,   0,       33.008213    ,      0.43354884E-04,       4.4021693    
! <WindowConstruction>,Construction Name,Index,#Layers,Roughness,Conductance {W/m2-K},SHGC,Solar Transmittance at Normal Incidence,Visible Transmittance at Normal Incidence
! <WindowMaterial:Glazing>, Material Name, Optical Data Type, Spectral Data Set Name, Thickness {m}, Solar Transmittance,Front Solar Reflectance, Back Solar Reflectance, Visible Transmittance, Front Visible Reflectance,Back Visible Reflectance,Infrared Transmittance, Front Thermal Emissivity, Back Thermal Emissivity,Conductivity {W/m-K},Dirt Factor,Solar Diffusing
! <WindowMaterial:Gas>,Material Name,GasType,Thickness {m}
 WindowConstruction,ASHRAE 30PERC GUIDE_ZONE 5_0.3_0.4_FIXED_SOUTH_WINDOW,2,3,VerySmooth,2.360,0.468,0.435,0.490
 WindowMaterial:Glazing,THEORETICAL GLASS [183],SpectralAverage,,3.00000E-003,0.62270,0.32730,0.32730,0.67200,0.27800,0.27800,0.00000,0.94000,0.94000,4.52000E-002,1.00000,No
 WindowMaterial:Gas,AIR 6MM_1,Air,6.300E-003
 WindowMaterial:Glazing,THEORETICAL GLASS [183],SpectralAverage,,3.00000E-003,0.62270,0.32730,0.32730,0.67200,0.27800,0.27800,0.00000,0.94000,0.94000,4.52000E-002,1.00000,No
 WindowConstruction,ASHRAE 30PERC GUIDE_ZONE 5_0.3_0.4_FIXED_EAST_WINDOW,3,3,VerySmooth,2.360,0.468,0.435,0.490
 WindowMaterial:Glazing,THEORETICAL GLASS [183],SpectralAverage,,3.00000E-003,0.62270,0.32730,0.32730,0.67200,0.27800,0.27800,0.00000,0.94000,0.94000,4.52000E-002,1.00000,No
 WindowMaterial:Gas,AIR 6MM_1,Air,6.300E-003
 WindowMaterial:Glazing,THEORETICAL GLASS [183],SpectralAverage,,3.00000E-003,0.62270,0.32730,0.32730,0.67200,0.27800,0.27800,0.00000,0.94000,0.94000,4.52000E-002,1.00000,No
 WindowConstruction,ASHRAE 30PERC GUIDE_ZONE 5_0.3_0.4_FIXED_NORTH_WINDOW,4,3,VerySmooth,2.360,0.468,0.435,0.490
 WindowMaterial:Glazing,THEORETICAL GLASS [183],SpectralAverage,,3.00000E-003,0.62270,0.32730,0.32730,0.67200,0.27800,0.27800,0.00000,0.94000,0.94000,4.52000E-002,1.00000,No
 WindowMaterial:Gas,AIR 6MM_1,Air,6.300E-003
 WindowMaterial:Glazing,THEORETICAL GLASS [183],SpectralAverage,,3.00000E-003,0.62270,0.32730,0.32730,0.67200,0.27800,0.27800,0.00000,0.94000,0.94000,4.52000E-002,1.00000,No
 WindowConstruction,ASHRAE 30PERC GUIDE_ZONE 5_0.3_0.4_FIXED_WEST_WINDOW,5,3,VerySmooth,2.360,0.468,0.435,0.490
 WindowMaterial:Glazing,THEORETICAL GLASS [183],SpectralAverage,,3.00000E-003,0.62270,0.32730,0.32730,0.67200,0.27800,0.27800,0.00000,0.94000,0.94000,4.52000E-002,1.00000,No
 WindowMaterial:Gas,AIR 6MM_1,Air,6.300E-003
 WindowMaterial:Glazing,THEORETICAL GLASS [183],SpectralAverage,,3.00000E-003,0.62270,0.32730,0.32730,0.67200,0.27800,0.27800,0.00000,0.94000,0.94000,4.52000E-002,1.00000,No
 WindowConstruction,ASHRAE 30PERC GUIDE_ZONE 5_0_0.03_ALL SKYLIGHTS WITHOUT CURB_SKYLIGHT,6,1,VerySmooth,3.819,0.400,0.383,0.411
 WindowMaterial:Glazing,THEORETICAL GLASS [28],SpectralAverage,,3.00000E-003,0.38300,0.56700,0.56700,0.41100,0.53900,0.53900,0.00000,0.92000,0.92000,2.98000E-002,1.00000,No
! <Shadowing/Sun Position Calculations Annual Simulations>, Calculation Method, Value {days}, Allowable Number Figures in Shadow Overlap {}, Polygon Clipping Algorithm, Sky Diffuse Modeling Algorithm, External Shading Calculation Method, Output External Shading Calculation Results, Disable Self-Shading Within Shading Zone Groups, Disable Self-Shading From Shading Zone Groups to Other Zones
Shadowing/Sun Position Calculations Annual Simulations,AverageOverDaysInFrequency,30,15000,SutherlandHodgman,SimpleSkyDiffuseModeling,InternalCalculation,No,No,No
! <Zone/Window Adjacency Daylighting Counts>, Zone Name, Number of Exterior Windows, Number of Exterior Windows in Adjacent Zones
Zone/Window Adjacency Daylighting Counts, ZN_1_FLR_1_SEC_1,1,0
Zone/Window Adjacency Daylighting Counts, ZN_1_FLR_1_SEC_2,1,0
Zone/Window Adjacency Daylighting Counts, ZN_1_FLR_1_SEC_3,1,0
Zone/Window Adjacency Daylighting Counts, ZN_1_FLR_1_SEC_4,1,0
Zone/Window Adjacency Daylighting Counts, ZN_1_FLR_1_SEC_5,8,0
! <Zone/Window Adjacency Daylighting Matrix>, Zone Name, Number of Adjacent Zones with Windows,Adjacent Zone Names - 1st 100 (max)
Zone/Window Adjacency Daylighting Matrix, ZN_1_FLR_1_SEC_1,0
Zone/Window Adjacency Daylighting Matrix, ZN_1_FLR_1_SEC_2,0
Zone/Window Adjacency Daylighting Matrix, ZN_1_FLR_1_SEC_3,0
Zone/Window Adjacency Daylighting Matrix, ZN_1_FLR_1_SEC_4,0
Zone/Window Adjacency Daylighting Matrix, ZN_1_FLR_1_SEC_5,0
! <Water Heater Information>,Type,Name,Volume {m3},Maximum Capacity {W},Standard Rated Recovery Efficiency, Standard Rated Energy Factor
! <Chilled Water Tank Information>,Type,Name,Volume {m3},Use Side Design Flow Rate {m3/s}, Source Side Design Flow Rate {m3/s}
! <ZoneInfiltration Airflow Stats Nominal>,Name,Schedule Name,Zone Name, Zone Floor Area {m2}, # Zone Occupants,Design Volume Flow Rate {m3/s},Volume Flow Rate/Floor Area {m3/s/m2},Volume Flow Rate/Exterior Surface Area {m3/s/m2},ACH - Air Changes per Hour,Equation A - Constant Term Coefficient {},Equation B - Temperature Term Coefficient {1/C},Equation C - Velocity Term Coefficient {s/m}, Equation D - Velocity Squared Term Coefficient {s2/m2}
 ZoneInfiltration Airflow Stats Nominal, ZN_1_FLR_1_SEC_1_INFILTRATION,INFIL_SCH,ZN_1_FLR_1_SEC_1,161.92,6.3,8.550E-002,5.281E-004,2.724E-004,0.500,1.000,0.000,0.000,0.000
 ZoneInfiltration Airflow Stats Nominal, ZN_1_FLR_1_SEC_2_INFILTRATION,INFIL_SCH,ZN_1_FLR_1_SEC_2,70.52,2.8,3.720E-002,5.275E-004,2.539E-004,0.500,1.000,0.000,0.000,0.000
 ZoneInfiltration Airflow Stats Nominal, ZN_1_FLR_1_SEC_3_INFILTRATION,INFIL_SCH,ZN_1_FLR_1_SEC_3,161.92,6.3,8.550E-002,5.281E-004,2.724E-004,0.500,1.000,0.000,0.000,0.000
 ZoneInfiltration Airflow Stats Nominal, ZN_1_FLR_1_SEC_4_INFILTRATION,INFIL_SCH,ZN_1_FLR_1_SEC_4,70.52,2.8,3.720E-002,5.275E-004,2.539E-004,0.500,1.000,0.000,0.000,0.000
 ZoneInfiltration Airflow Stats Nominal, ZN_1_FLR_1_SEC_5_INFILTRATION,INFIL_SCH,ZN_1_FLR_1_SEC_5,335.14,13.1,0.177,5.278E-004,5.278E-004,0.500,1.000,0.000,0.000,0.000
! <AirFlow Model>, Simple
 AirFlow Model, Simple
! <RoomAir Model>, Zone Name, Mixing/Mundt/UCSDDV/UCSDCV/UCSDUFI/UCSDUFE/User Defined
RoomAir Model,ZN_1_FLR_1_SEC_1,Mixing/Well-Stirred
RoomAir Model,ZN_1_FLR_1_SEC_2,Mixing/Well-Stirred
RoomAir Model,ZN_1_FLR_1_SEC_3,Mixing/Well-Stirred
RoomAir Model,ZN_1_FLR_1_SEC_4,Mixing/Well-Stirred
RoomAir Model,ZN_1_FLR_1_SEC_5,Mixing/Well-Stirred
! <AirflowNetwork Model:Control>, No Multizone or Distribution/Multizone with Distribution/Multizone without Distribution/Multizone with Distribution only during Fan Operation
AirflowNetwork Model:Control,NoMultizoneOrDistribution
! <Zone Volume Capacitance Multiplier>, Sensible Heat Capacity Multiplier, Moisture Capacity Multiplier, Carbon Dioxide Capacity Multiplier, Generic Contaminant Capacity Multiplier
Zone Volume Capacitance Multiplier,   1.000 ,   1.000,   1.000,   1.000
! <Load Timesteps in Zone Design Calculation Averaging Window>, Value
 Load Timesteps in Zone Design Calculation Averaging Window,    4
! <Heating Sizing Factor Information>, Sizing Factor ID, Value
 Heating Sizing Factor Information, Global,   1.2000    
 Heating Sizing Factor Information, Zone ZN_1_FLR_1_SEC_1,   1.2000    
 Heating Sizing Factor Information, Zone ZN_1_FLR_1_SEC_2,   1.2000    
 Heating Sizing Factor Information, Zone ZN_1_FLR_1_SEC_3,   1.2000    
 Heating Sizing Factor Information, Zone ZN_1_FLR_1_SEC_4,   1.2000    
 Heating Sizing Factor Information, Zone ZN_1_FLR_1_SEC_5,   1.2000    
! <Cooling Sizing Factor Information>, Sizing Factor ID, Value
 Cooling Sizing Factor Information, Global,   1.2000    
 Cooling Sizing Factor Information, Zone ZN_1_FLR_1_SEC_1,   1.2000    
 Cooling Sizing Factor Information, Zone ZN_1_FLR_1_SEC_2,   1.2000    
 Cooling Sizing Factor Information, Zone ZN_1_FLR_1_SEC_3,   1.2000    
 Cooling Sizing Factor Information, Zone ZN_1_FLR_1_SEC_4,   1.2000    
 Cooling Sizing Factor Information, Zone ZN_1_FLR_1_SEC_5,   1.2000    
! <Sky Daylight Factors>, MonthAndDay, Zone Name, Window Name, Daylight Fac: Ref Pt #1, Daylight Fac: Ref Pt #2
 Clear Sky Daylight Factors,01/21,ZN_1_FLR_1_SEC_1,ZN_1_FLR_1_SEC_1_WALL_1_WINDOW_1,0.1352,0.0000
 Clear Turbid Sky Daylight Factors,01/21,ZN_1_FLR_1_SEC_1,ZN_1_FLR_1_SEC_1_WALL_1_WINDOW_1,0.1518,0.0000
 Intermediate Sky Daylight Factors,01/21,ZN_1_FLR_1_SEC_1,ZN_1_FLR_1_SEC_1_WALL_1_WINDOW_1,8.4138E-002,0.0000
 Overcast Sky Daylight Factors,01/21,ZN_1_FLR_1_SEC_1,ZN_1_FLR_1_SEC_1_WALL_1_WINDOW_1,3.2869E-002,0.0000
 Clear Sky Daylight Factors,01/21,ZN_1_FLR_1_SEC_2,ZN_1_FLR_1_SEC_2_WALL_1_WINDOW_1,5.2733E-002,0.0000
 Clear Turbid Sky Daylight Factors,01/21,ZN_1_FLR_1_SEC_2,ZN_1_FLR_1_SEC_2_WALL_1_WINDOW_1,4.8352E-002,0.0000
 Intermediate Sky Daylight Factors,01/21,ZN_1_FLR_1_SEC_2,ZN_1_FLR_1_SEC_2_WALL_1_WINDOW_1,4.5462E-002,0.0000
 Overcast Sky Daylight Factors,01/21,ZN_1_FLR_1_SEC_2,ZN_1_FLR_1_SEC_2_WALL_1_WINDOW_1,3.3773E-002,0.0000
 Clear Sky Daylight Factors,01/21,ZN_1_FLR_1_SEC_3,ZN_1_FLR_1_SEC_3_WALL_3_WINDOW_1,5.3305E-002,0.0000
 Clear Turbid Sky Daylight Factors,01/21,ZN_1_FLR_1_SEC_3,ZN_1_FLR_1_SEC_3_WALL_3_WINDOW_1,4.1508E-002,0.0000
 Intermediate Sky Daylight Factors,01/21,ZN_1_FLR_1_SEC_3,ZN_1_FLR_1_SEC_3_WALL_3_WINDOW_1,3.6130E-002,0.0000
 Overcast Sky Daylight Factors,01/21,ZN_1_FLR_1_SEC_3,ZN_1_FLR_1_SEC_3_WALL_3_WINDOW_1,5.2231E-002,0.0000
 Clear Sky Daylight Factors,01/21,ZN_1_FLR_1_SEC_4,ZN_1_FLR_1_SEC_4_WALL_4_WINDOW_1,5.1818E-002,0.0000
 Clear Turbid Sky Daylight Factors,01/21,ZN_1_FLR_1_SEC_4,ZN_1_FLR_1_SEC_4_WALL_4_WINDOW_1,4.7207E-002,0.0000
 Intermediate Sky Daylight Factors,01/21,ZN_1_FLR_1_SEC_4,ZN_1_FLR_1_SEC_4_WALL_4_WINDOW_1,4.4749E-002,0.0000
 Overcast Sky Daylight Factors,01/21,ZN_1_FLR_1_SEC_4,ZN_1_FLR_1_SEC_4_WALL_4_WINDOW_1,3.3773E-002,0.0000
 Clear Sky Daylight Factors,01/21,ZN_1_FLR_1_SEC_5,ZN_1_FLR_1_SEC_5_CEILING_SKYLIGHT_1,5.3138E-004,0.0000
 Clear Turbid Sky Daylight Factors,01/21,ZN_1_FLR_1_SEC_5,ZN_1_FLR_1_SEC_5_CEILING_SKYLIGHT_1,5.1678E-004,0.0000
 Intermediate Sky Daylight Factors,01/21,ZN_1_FLR_1_SEC_5,ZN_1_FLR_1_SEC_5_CEILING_SKYLIGHT_1,5.2804E-004,0.0000
 Overcast Sky Daylight Factors,01/21,ZN_1_FLR_1_SEC_5,ZN_1_FLR_1_SEC_5_CEILING_SKYLIGHT_1,4.8258E-004,0.0000
 Clear Sky Daylight Factors,01/21,ZN_1_FLR_1_SEC_5,ZN_1_FLR_1_SEC_5_CEILING_SKYLIGHT_2,2.5672E-003,0.0000
 Clear Turbid Sky Daylight Factors,01/21,ZN_1_FLR_1_SEC_5,ZN_1_FLR_1_SEC_5_CEILING_SKYLIGHT_2,2.5256E-003,0.0000
 Intermediate Sky Daylight Factors,01/21,ZN_1_FLR_1_SEC_5,ZN_1_FLR_1_SEC_5_CEILING_SKYLIGHT_2,3.2736E-003,0.0000
 Overcast Sky Daylight Factors,01/21,ZN_1_FLR_1_SEC_5,ZN_1_FLR_1_SEC_5_CEILING_SKYLIGHT_2,2.2105E-003,0.0000
 Clear Sky Daylight Factors,01/21,ZN_1_FLR_1_SEC_5,ZN_1_FLR_1_SEC_5_CEILING_SKYLIGHT_3,2.6395E-003,0.0000
 Clear Turbid Sky Daylight Factors,01/21,ZN_1_FLR_1_SEC_5,ZN_1_FLR_1_SEC_5_CEILING_SKYLIGHT_3,2.6125E-003,0.0000
 Intermediate Sky Daylight Factors,01/21,ZN_1_FLR_1_SEC_5,ZN_1_FLR_1_SEC_5_CEILING_SKYLIGHT_3,3.3297E-003,0.0000
 Overcast Sky Daylight Factors,01/21,ZN_1_FLR_1_SEC_5,ZN_1_FLR_1_SEC_5_CEILING_SKYLIGHT_3,2.2105E-003,0.0000
 Clear Sky Daylight Factors,01/21,ZN_1_FLR_1_SEC_5,ZN_1_FLR_1_SEC_5_CEILING_SKYLIGHT_4,5.3337E-004,0.0000
 Clear Turbid Sky Daylight Factors,01/21,ZN_1_FLR_1_SEC_5,ZN_1_FLR_1_SEC_5_CEILING_SKYLIGHT_4,5.1897E-004,0.0000
 Intermediate Sky Daylight Factors,01/21,ZN_1_FLR_1_SEC_5,ZN_1_FLR_1_SEC_5_CEILING_SKYLIGHT_4,5.2996E-004,0.0000
 Overcast Sky Daylight Factors,01/21,ZN_1_FLR_1_SEC_5,ZN_1_FLR_1_SEC_5_CEILING_SKYLIGHT_4,4.8258E-004,0.0000
 Clear Sky Daylight Factors,01/21,ZN_1_FLR_1_SEC_5,ZN_1_FLR_1_SEC_5_CEILING_SKYLIGHT_5,5.1409E-004,0.0000
 Clear Turbid Sky Daylight Factors,01/21,ZN_1_FLR_1_SEC_5,ZN_1_FLR_1_SEC_5_CEILING_SKYLIGHT_5,4.9660E-004,0.0000
 Intermediate Sky Daylight Factors,01/21,ZN_1_FLR_1_SEC_5,ZN_1_FLR_1_SEC_5_CEILING_SKYLIGHT_5,4.9995E-004,0.0000
 Overcast Sky Daylight Factors,01/21,ZN_1_FLR_1_SEC_5,ZN_1_FLR_1_SEC_5_CEILING_SKYLIGHT_5,4.8258E-004,0.0000
 Clear Sky Daylight Factors,01/21,ZN_1_FLR_1_SEC_5,ZN_1_FLR_1_SEC_5_CEILING_SKYLIGHT_6,1.5004E-003,0.0000
 Clear Turbid Sky Daylight Factors,01/21,ZN_1_FLR_1_SEC_5,ZN_1_FLR_1_SEC_5_CEILING_SKYLIGHT_6,1.2831E-003,0.0000
 Intermediate Sky Daylight Factors,01/21,ZN_1_FLR_1_SEC_5,ZN_1_FLR_1_SEC_5_CEILING_SKYLIGHT_6,1.6736E-003,0.0000
 Overcast Sky Daylight Factors,01/21,ZN_1_FLR_1_SEC_5,ZN_1_FLR_1_SEC_5_CEILING_SKYLIGHT_6,2.2105E-003,0.0000
 Clear Sky Daylight Factors,01/21,ZN_1_FLR_1_SEC_5,ZN_1_FLR_1_SEC_5_CEILING_SKYLIGHT_7,1.5007E-003,0.0000
 Clear Turbid Sky Daylight Factors,01/21,ZN_1_FLR_1_SEC_5,ZN_1_FLR_1_SEC_5_CEILING_SKYLIGHT_7,1.2855E-003,0.0000
 Intermediate Sky Daylight Factors,01/21,ZN_1_FLR_1_SEC_5,ZN_1_FLR_1_SEC_5_CEILING_SKYLIGHT_7,1.6918E-003,0.0000
 Overcast Sky Daylight Factors,01/21,ZN_1_FLR_1_SEC_5,ZN_1_FLR_1_SEC_5_CEILING_SKYLIGHT_7,2.2105E-003,0.0000
 Clear Sky Daylight Factors,01/21,ZN_1_FLR_1_SEC_5,ZN_1_FLR_1_SEC_5_CEILING_SKYLIGHT_8,5.1437E-004,0.0000
 Clear Turbid Sky Daylight Factors,01/21,ZN_1_FLR_1_SEC_5,ZN_1_FLR_1_SEC_5_CEILING_SKYLIGHT_8,4.9708E-004,0.0000
 Intermediate Sky Daylight Factors,01/21,ZN_1_FLR_1_SEC_5,ZN_1_FLR_1_SEC_5_CEILING_SKYLIGHT_8,5.0129E-004,0.0000
 Overcast Sky Daylight Factors,01/21,ZN_1_FLR_1_SEC_5,ZN_1_FLR_1_SEC_5_CEILING_SKYLIGHT_8,4.8258E-004,0.0000
! <Zone Sizing Information>, Zone Name, Load Type, Calc Des Load {W}, User Des Load {W}, Calc Des Air Flow Rate {m3/s}, User Des Air Flow Rate {m3/s}, Design Day Name, Date/Time of Peak, Temperature at Peak {C}, Humidity Ratio at Peak {kgWater/kgDryAir}, Floor Area {m2}, # Occupants, Calc Outdoor Air Flow Rate {m3/s}, Calc DOAS Heat Addition Rate {W}
 Zone Sizing Information, ZN_1_FLR_1_SEC_1, Cooling, 6647.72739, 7977.27287, 0.56165, 0.67397, CHICAGO ANN CLG .4% CONDNS DB=>MWB, 7/21 07:00:00, 23.46300, 1.51361E-002, 161.91510, 6.33090, 7.47046E-002, 0.00000
 Zone Sizing Information, ZN_1_FLR_1_SEC_1, Heating, 17618.32903, 21141.99484, 0.71519, 0.85822, CHICAGO ANN HTG 99.6% CONDNS DB, 1/21 07:00:00, -20.60000, 6.12575E-004, 161.91510, 6.33090, 7.47046E-002, 0.00000
 Zone Sizing Information, ZN_1_FLR_1_SEC_2, Cooling, 7469.31884, 8963.18261, 0.62842, 0.75411, CHICAGO ANN CLG .4% CONDNS DB=>MWB, 7/21 07:00:00, 23.46300, 1.51361E-002, 70.51510, 2.75710, 3.25338E-002, 0.00000
 Zone Sizing Information, ZN_1_FLR_1_SEC_2, Heating, 8420.83678, 10105.00414, 0.34298, 0.41157, CHICAGO ANN HTG 99.6% CONDNS DB, 1/21 07:00:00, -20.60000, 6.12575E-004, 70.51510, 2.75710, 3.25338E-002, 0.00000
 Zone Sizing Information, ZN_1_FLR_1_SEC_3, Cooling, 7828.81842, 9394.58210, 0.65692, 0.78830, CHICAGO ANN CLG .4% CONDNS DB=>MWB, 7/21 07:00:00, 23.46300, 1.51361E-002, 161.91510, 6.33090, 7.47046E-002, 0.00000
 Zone Sizing Information, ZN_1_FLR_1_SEC_3, Heating, 17494.94348, 20993.93217, 0.71045, 0.85254, CHICAGO ANN HTG 99.6% CONDNS DB, 1/21 07:00:00, -20.60000, 6.12575E-004, 161.91510, 6.33090, 7.47046E-002, 0.00000
 Zone Sizing Information, ZN_1_FLR_1_SEC_4, Cooling, 7176.43420, 8611.72104, 0.66444, 0.79733, CHICAGO ANN CLG .4% CONDNS DB=>MWB, 7/21 17:30:00, 31.16700, 1.51361E-002, 70.51510, 2.75710, 3.25338E-002, 0.00000
 Zone Sizing Information, ZN_1_FLR_1_SEC_4, Heating, 8417.25738, 10100.70886, 0.34283, 0.41139, CHICAGO ANN HTG 99.6% CONDNS DB, 1/21 07:00:00, -20.60000, 6.12575E-004, 70.51510, 2.75710, 3.25338E-002, 0.00000
 Zone Sizing Information, ZN_1_FLR_1_SEC_5, Cooling, 12783.25668, 15339.90802, 1.06863, 1.28235, CHICAGO ANN CLG .4% CONDNS DB=>MWB, 7/21 07:00:00, 23.46300, 1.51361E-002, 335.13960, 13.10400, 0.15463, 0.00000
 Zone Sizing Information, ZN_1_FLR_1_SEC_5, Heating, 24116.32432, 28939.58918, 0.95568, 1.14682, CHICAGO ANN HTG 99.6% CONDNS DB, 1/21 07:00:00, -20.60000, 6.12575E-004, 335.13960, 13.10400, 0.15463, 0.00000
! <System Sizing Information>, System Name, Load Type, Peak Load Kind, User Design Capacity, Calc Des Air Flow Rate [m3/s], User Des Air Flow Rate [m3/s], Design Day Name, Date/Time of Peak
 System Sizing Information, VAV WITH REHEAT, Cooling, Sensible, 54150.60, 4.29607, 4.29607, CHICAGO ANN CLG .4% CONDNS DB=>MWB, 7/21 05:00:00
 System Sizing Information, VAV WITH REHEAT, Heating, Sensible, 3413.04, 3.68055, 3.68055, CHICAGO ANN HTG 99.6% CONDNS DB, 1/21 06:15:00
! <Component Sizing Information>, Component Type, Component Name, Input Field Description, Value
 Component Sizing Information, AirTerminal:SingleDuct:SeriesPIU:Reheat, ZN_1_FLR_1_SEC_1 VAV BOX COMPONENT, Design Size Maximum Primary Air Flow Rate [m3/s], 0.85822
 Component Sizing Information, AirTerminal:SingleDuct:SeriesPIU:Reheat, ZN_1_FLR_1_SEC_1 VAV BOX COMPONENT, Design Size Maximum Air Flow Rate [m3/s], 0.85822
 Component Sizing Information, AirTerminal:SingleDuct:SeriesPIU:Reheat, ZN_1_FLR_1_SEC_1 VAV BOX COMPONENT, Design Size Minimum Primary Air Flow Fraction, 8.70457E-002
 Component Sizing Information, AirTerminal:SingleDuct:SeriesPIU:Reheat, ZN_1_FLR_1_SEC_1 VAV BOX COMPONENT, Design Size Maximum Reheat Water Flow Rate [m3/s], 4.40548E-004
 Component Sizing Information, AirTerminal:SingleDuct:SeriesPIU:Reheat, ZN_1_FLR_1_SEC_1 VAV BOX COMPONENT, Design Size Reheat Coil Inlet Air Temperature [C], 16.70000
 Component Sizing Information, AirTerminal:SingleDuct:SeriesPIU:Reheat, ZN_1_FLR_1_SEC_1 VAV BOX COMPONENT, Design Size Reheat Coil Inlet Air Humidity Ratio [kgWater/kgDryAir], 8.00000E-003
 Component Sizing Information, Fan:ConstantVolume, ZONE 1 PIU FAN, Design Size Maximum Flow Rate [m3/s], 0.85822
 Component Sizing Information, Coil:Heating:Water, ZN_1_FLR_1_SEC_1 VAV BOX REHEAT COIL, Design Size Rated Capacity [W], 19939.91825
 Component Sizing Information, Coil:Heating:Water, ZN_1_FLR_1_SEC_1 VAV BOX REHEAT COIL, Design Size Maximum Water Flow Rate [m3/s], 4.40548E-004
 Component Sizing Information, Coil:Heating:Water, ZN_1_FLR_1_SEC_1 VAV BOX REHEAT COIL, Design Size U-Factor Times Area Value [W/K], 451.33812
! <Water Heating Coil Capacity Information>,Component Type,Name,Nominal Total Capacity {W}
Water Heating Coil Capacity Information,Coil:Heating:Water,ZN_1_FLR_1_SEC_1 VAV BOX REHEAT COIL,21343.08
 Component Sizing Information, AirTerminal:SingleDuct:VAV:Reheat, ZN_1_FLR_1_SEC_2 VAV BOX COMPONENT, Design Size Maximum Air Flow Rate [m3/s], 0.75411
 Component Sizing Information, AirTerminal:SingleDuct:VAV:Reheat, ZN_1_FLR_1_SEC_2 VAV BOX COMPONENT, Design Size Constant Minimum Air Flow Fraction, 9.58711E-002
 Component Sizing Information, AirTerminal:SingleDuct:VAV:Reheat, ZN_1_FLR_1_SEC_2 VAV BOX COMPONENT, User-Specified Constant Minimum Air Flow Fraction, 0.30000
 Component Sizing Information, AirTerminal:SingleDuct:VAV:Reheat, ZN_1_FLR_1_SEC_2 VAV BOX COMPONENT, Design Size Minimum Air Flow Rate [m3/s], 0.22623
 Component Sizing Information, AirTerminal:SingleDuct:VAV:Reheat, ZN_1_FLR_1_SEC_2 VAV BOX COMPONENT, Design Size Maximum Flow Fraction during Reheat [], 0.30000
 Component Sizing Information, AirTerminal:SingleDuct:VAV:Reheat, ZN_1_FLR_1_SEC_2 VAV BOX COMPONENT, Design Size Maximum Flow per Zone Floor Area during Reheat [m3/s-m2], 3.20829E-003
 Component Sizing Information, AirTerminal:SingleDuct:VAV:Reheat, ZN_1_FLR_1_SEC_2 VAV BOX COMPONENT, Design Size Maximum Reheat Water Flow Rate [m3/s], 2.70114E-004
 Component Sizing Information, AirTerminal:SingleDuct:VAV:Reheat, ZN_1_FLR_1_SEC_2 VAV BOX COMPONENT, Design Size Reheat Coil Sizing Air Volume Flow Rate [m3/s], 0.41157
 Component Sizing Information, AirTerminal:SingleDuct:VAV:Reheat, ZN_1_FLR_1_SEC_2 VAV BOX COMPONENT, Design Size Reheat Coil Sizing Inlet Air Temperature [C], 16.70000
 Component Sizing Information, AirTerminal:SingleDuct:VAV:Reheat, ZN_1_FLR_1_SEC_2 VAV BOX COMPONENT, Design Size Reheat Coil Sizing Inlet Air Humidity Ratio [kgWater/kgDryAir], 8.00000E-003
 Component Sizing Information, Coil:Heating:Water, ZN_1_FLR_1_SEC_2 VAV BOX REHEAT COIL, Design Size Rated Capacity [W], 12225.79276
 Component Sizing Information, Coil:Heating:Water, ZN_1_FLR_1_SEC_2 VAV BOX REHEAT COIL, Design Size Maximum Water Flow Rate [m3/s], 2.70114E-004
 Component Sizing Information, Coil:Heating:Water, ZN_1_FLR_1_SEC_2 VAV BOX REHEAT COIL, Design Size U-Factor Times Area Value [W/K], 269.39875
Water Heating Coil Capacity Information,Coil:Heating:Water,ZN_1_FLR_1_SEC_2 VAV BOX REHEAT COIL,12294.84
 Component Sizing Information, AirTerminal:SingleDuct:VAV:Reheat, ZN_1_FLR_1_SEC_3 VAV BOX COMPONENT, Design Size Maximum Air Flow Rate [m3/s], 0.85254
 Component Sizing Information, AirTerminal:SingleDuct:VAV:Reheat, ZN_1_FLR_1_SEC_3 VAV BOX COMPONENT, Design Size Constant Minimum Air Flow Fraction, 0.19472
 Component Sizing Information, AirTerminal:SingleDuct:VAV:Reheat, ZN_1_FLR_1_SEC_3 VAV BOX COMPONENT, User-Specified Constant Minimum Air Flow Fraction, 0.30000
 Component Sizing Information, AirTerminal:SingleDuct:VAV:Reheat, ZN_1_FLR_1_SEC_3 VAV BOX COMPONENT, Design Size Minimum Air Flow Rate [m3/s], 0.25576
 Component Sizing Information, AirTerminal:SingleDuct:VAV:Reheat, ZN_1_FLR_1_SEC_3 VAV BOX COMPONENT, Design Size Maximum Flow Fraction during Reheat [], 0.38592
 Component Sizing Information, AirTerminal:SingleDuct:VAV:Reheat, ZN_1_FLR_1_SEC_3 VAV BOX COMPONENT, Design Size Maximum Flow per Zone Floor Area during Reheat [m3/s-m2], 2.03200E-003
 Component Sizing Information, AirTerminal:SingleDuct:VAV:Reheat, ZN_1_FLR_1_SEC_3 VAV BOX COMPONENT, Design Size Maximum Reheat Water Flow Rate [m3/s], 5.60872E-004
 Component Sizing Information, AirTerminal:SingleDuct:VAV:Reheat, ZN_1_FLR_1_SEC_3 VAV BOX COMPONENT, Design Size Reheat Coil Sizing Air Volume Flow Rate [m3/s], 0.85254
 Component Sizing Information, AirTerminal:SingleDuct:VAV:Reheat, ZN_1_FLR_1_SEC_3 VAV BOX COMPONENT, Design Size Reheat Coil Sizing Inlet Air Temperature [C], 16.70000
 Component Sizing Information, AirTerminal:SingleDuct:VAV:Reheat, ZN_1_FLR_1_SEC_3 VAV BOX COMPONENT, Design Size Reheat Coil Sizing Inlet Air Humidity Ratio [kgWater/kgDryAir], 8.00000E-003
 Component Sizing Information, Coil:Heating:Water, ZN_1_FLR_1_SEC_3 VAV BOX REHEAT COIL, Design Size Rated Capacity [W], 25385.97987
 Component Sizing Information, Coil:Heating:Water, ZN_1_FLR_1_SEC_3 VAV BOX REHEAT COIL, Design Size Maximum Water Flow Rate [m3/s], 5.60872E-004
 Component Sizing Information, Coil:Heating:Water, ZN_1_FLR_1_SEC_3 VAV BOX REHEAT COIL, Design Size U-Factor Times Area Value [W/K], 559.76950
Water Heating Coil Capacity Information,Coil:Heating:Water,ZN_1_FLR_1_SEC_3 VAV BOX REHEAT COIL,25529.29
 Component Sizing Information, AirTerminal:SingleDuct:VAV:Reheat, ZN_1_FLR_1_SEC_4 VAV BOX COMPONENT, Design Size Maximum Air Flow Rate [m3/s], 0.79733
 Component Sizing Information, AirTerminal:SingleDuct:VAV:Reheat, ZN_1_FLR_1_SEC_4 VAV BOX COMPONENT, Design Size Constant Minimum Air Flow Fraction, 9.06743E-002
 Component Sizing Information, AirTerminal:SingleDuct:VAV:Reheat, ZN_1_FLR_1_SEC_4 VAV BOX COMPONENT, User-Specified Constant Minimum Air Flow Fraction, 0.30000
 Component Sizing Information, AirTerminal:SingleDuct:VAV:Reheat, ZN_1_FLR_1_SEC_4 VAV BOX COMPONENT, Design Size Minimum Air Flow Rate [m3/s], 0.23920
 Component Sizing Information, AirTerminal:SingleDuct:VAV:Reheat, ZN_1_FLR_1_SEC_4 VAV BOX COMPONENT, Design Size Maximum Flow Fraction during Reheat [], 0.30000
 Component Sizing Information, AirTerminal:SingleDuct:VAV:Reheat, ZN_1_FLR_1_SEC_4 VAV BOX COMPONENT, Design Size Maximum Flow per Zone Floor Area during Reheat [m3/s-m2], 3.39216E-003
 Component Sizing Information, AirTerminal:SingleDuct:VAV:Reheat, ZN_1_FLR_1_SEC_4 VAV BOX COMPONENT, Design Size Maximum Reheat Water Flow Rate [m3/s], 2.69999E-004
 Component Sizing Information, AirTerminal:SingleDuct:VAV:Reheat, ZN_1_FLR_1_SEC_4 VAV BOX COMPONENT, Design Size Reheat Coil Sizing Air Volume Flow Rate [m3/s], 0.41139
 Component Sizing Information, AirTerminal:SingleDuct:VAV:Reheat, ZN_1_FLR_1_SEC_4 VAV BOX COMPONENT, Design Size Reheat Coil Sizing Inlet Air Temperature [C], 16.70000
 Component Sizing Information, AirTerminal:SingleDuct:VAV:Reheat, ZN_1_FLR_1_SEC_4 VAV BOX COMPONENT, Design Size Reheat Coil Sizing Inlet Air Humidity Ratio [kgWater/kgDryAir], 8.00000E-003
 Component Sizing Information, Coil:Heating:Water, ZN_1_FLR_1_SEC_4 VAV BOX REHEAT COIL, Design Size Rated Capacity [W], 12220.57200
 Component Sizing Information, Coil:Heating:Water, ZN_1_FLR_1_SEC_4 VAV BOX REHEAT COIL, Design Size Maximum Water Flow Rate [m3/s], 2.69999E-004
 Component Sizing Information, Coil:Heating:Water, ZN_1_FLR_1_SEC_4 VAV BOX REHEAT COIL, Design Size U-Factor Times Area Value [W/K], 269.28435
Water Heating Coil Capacity Information,Coil:Heating:Water,ZN_1_FLR_1_SEC_4 VAV BOX REHEAT COIL,12289.59
 Component Sizing Information, AirTerminal:SingleDuct:VAV:Reheat, ZN_1_FLR_1_SEC_5 VAV BOX COMPONENT, Design Size Maximum Air Flow Rate [m3/s], 1.28235
 Component Sizing Information, AirTerminal:SingleDuct:VAV:Reheat, ZN_1_FLR_1_SEC_5 VAV BOX COMPONENT, Design Size Constant Minimum Air Flow Fraction, 0.26796
 Component Sizing Information, AirTerminal:SingleDuct:VAV:Reheat, ZN_1_FLR_1_SEC_5 VAV BOX COMPONENT, User-Specified Constant Minimum Air Flow Fraction, 0.30000
 Component Sizing Information, AirTerminal:SingleDuct:VAV:Reheat, ZN_1_FLR_1_SEC_5 VAV BOX COMPONENT, Design Size Minimum Air Flow Rate [m3/s], 0.38471
 Component Sizing Information, AirTerminal:SingleDuct:VAV:Reheat, ZN_1_FLR_1_SEC_5 VAV BOX COMPONENT, Design Size Maximum Flow Fraction during Reheat [], 0.53106
 Component Sizing Information, AirTerminal:SingleDuct:VAV:Reheat, ZN_1_FLR_1_SEC_5 VAV BOX COMPONENT, Design Size Maximum Flow per Zone Floor Area during Reheat [m3/s-m2], 2.03200E-003
 Component Sizing Information, AirTerminal:SingleDuct:VAV:Reheat, ZN_1_FLR_1_SEC_5 VAV BOX COMPONENT, Design Size Maximum Reheat Water Flow Rate [m3/s], 7.69725E-004
 Component Sizing Information, AirTerminal:SingleDuct:VAV:Reheat, ZN_1_FLR_1_SEC_5 VAV BOX COMPONENT, Design Size Reheat Coil Sizing Air Volume Flow Rate [m3/s], 1.14682
 Component Sizing Information, AirTerminal:SingleDuct:VAV:Reheat, ZN_1_FLR_1_SEC_5 VAV BOX COMPONENT, Design Size Reheat Coil Sizing Inlet Air Temperature [C], 16.70000
 Component Sizing Information, AirTerminal:SingleDuct:VAV:Reheat, ZN_1_FLR_1_SEC_5 VAV BOX COMPONENT, Design Size Reheat Coil Sizing Inlet Air Humidity Ratio [kgWater/kgDryAir], 8.00000E-003
 Component Sizing Information, Coil:Heating:Water, ZN_1_FLR_1_SEC_5 VAV BOX REHEAT COIL, Design Size Rated Capacity [W], 34838.97960
 Component Sizing Information, Coil:Heating:Water, ZN_1_FLR_1_SEC_5 VAV BOX REHEAT COIL, Design Size Maximum Water Flow Rate [m3/s], 7.69725E-004
 Component Sizing Information, Coil:Heating:Water, ZN_1_FLR_1_SEC_5 VAV BOX REHEAT COIL, Design Size U-Factor Times Area Value [W/K], 772.65437
Water Heating Coil Capacity Information,Coil:Heating:Water,ZN_1_FLR_1_SEC_5 VAV BOX REHEAT COIL,35034.97
 Component Sizing Information, AirLoopHVAC, VAV WITH REHEAT, Sum of Air Terminal Maximum Heating Flow Rates [m3/s], 1.55015
 Component Sizing Information, AirLoopHVAC, VAV WITH REHEAT, Sum of Air Terminal Minimum Heating Flow Rates [m3/s], 1.18060
 Component Sizing Information, AirLoopHVAC, VAV WITH REHEAT, Sum of Air Terminal Maximum Flow Rates [m3/s], 4.54455
 Component Sizing Information, AirLoopHVAC, VAV WITH REHEAT, Adjusted Heating Design Air Flow Rate [m3/s], 3.68055
 Component Sizing Information, AirLoopHVAC, VAV WITH REHEAT, Adjusted Cooling Design Air Flow Rate [m3/s], 4.54455
 Component Sizing Information, AirLoopHVAC, VAV WITH REHEAT, Adjusted Main Design Air Flow Rate [m3/s], 4.54455
 Component Sizing Information, AirLoopHVAC, VAV WITH REHEAT, User Heating Air Flow Ratio [], 0.30000
 Component Sizing Information, AirLoopHVAC, VAV WITH REHEAT, Calculated Heating Air Flow Ratio [], 0.80988
 Component Sizing Information, AirLoopHVAC, VAV WITH REHEAT, Design Supply Air Flow Rate [m3/s], 4.54455
!<Controller:MechanicalVentilation>,Name,Availability Schedule Name,Demand Controlled Ventilation {Yes/No},System Outdoor Air Method,Zone Maximum Outdoor Air Fraction,Number of Zones,Zone Name,DSOA Name,DSZAD Name
 Controller:MechanicalVentilation,VAV WITH REHEAT_OAMECHANICAL VENTILATION,ALWAYS_ON,Yes,VentilationRateProcedure,0.30,5,ZN_1_FLR_1_SEC_1,CM DSOA ZN_1_FLR_1_SEC_1,ZONEAIRDISTRIBUTION,ZN_1_FLR_1_SEC_2,CM DSOA ZN_1_FLR_1_SEC_2,ZONEAIRDISTRIBUTION,ZN_1_FLR_1_SEC_3,CM DSOA ZN_1_FLR_1_SEC_3,ZONEAIRDISTRIBUTION,ZN_1_FLR_1_SEC_4,CM DSOA ZN_1_FLR_1_SEC_4,ZONEAIRDISTRIBUTION,ZN_1_FLR_1_SEC_5,CM DSOA ZN_1_FLR_1_SEC_5,ZONEAIRDISTRIBUTION
 Component Sizing Information, Controller:OutdoorAir, VAV WITH REHEAT_OA_CONTROLLER, Maximum Outdoor Air Flow Rate [m3/s], 4.54455
 Component Sizing Information, Controller:OutdoorAir, VAV WITH REHEAT_OA_CONTROLLER, Minimum Outdoor Air Flow Rate [m3/s], 0.35340
 Component Sizing Information, Coil:Cooling:Water, VAV WITH REHEAT_COOLC, Design Size Design Coil Load [W], 78403.96462
 Component Sizing Information, Coil:Cooling:Water, VAV WITH REHEAT_COOLC, Design Size Design Water Flow Rate [m3/s], 4.15083E-003
 Component Sizing Information, Coil:Cooling:Water, VAV WITH REHEAT_COOLC, Design Size Design Air Flow Rate [m3/s], 4.54455
 Component Sizing Information, Coil:Cooling:Water, VAV WITH REHEAT_COOLC, Design Size Design Inlet Air Humidity Ratio, 9.56857E-003
 Component Sizing Information, Coil:Cooling:Water, VAV WITH REHEAT_COOLC, Design Size Design Inlet Air Temperature [C], 24.46750
 Component Sizing Information, Coil:Cooling:Water, VAV WITH REHEAT_COOLC, Design Size Design Inlet Water Temperature [C], 7.50000
 Component Sizing Information, Coil:Cooling:Water, VAV WITH REHEAT_COOLC, Design Size Design Outlet Air Temperature [C], 12.76049
 Component Sizing Information, Coil:Cooling:Water, VAV WITH REHEAT_COOLC, Design Size Design Outlet Air Humidity Ratio, 9.05881E-003
! <Water Cooling Coil Capacity Information>,Component Type,Name,Nominal Total Capacity {W},Nominal Sensible Capacity {W},Nominal Latent Capacity {W},Nominal Sensible Heat Ratio, Nominal Coil UA Value {W/C}, Nominal Coil Surface Area {m2}
Water Cooling Coil Capacity Information,Coil:Cooling:Water,VAV WITH REHEAT_COOLC,102533.41,71451.89,31081.52,0.70,9209.02,93.40
 Component Sizing Information, Coil:Heating:Water, VAV WITH REHEAT_HEATC, Design Size Rated Capacity [W], 11692.42572
 Component Sizing Information, Coil:Heating:Water, VAV WITH REHEAT_HEATC, Design Size Maximum Water Flow Rate [m3/s], 2.58330E-004
 Component Sizing Information, Coil:Heating:Water, VAV WITH REHEAT_HEATC, Design Size U-Factor Times Area Value [W/K], 190.02532
Water Heating Coil Capacity Information,Coil:Heating:Water,VAV WITH REHEAT_HEATC,10582.74
 Component Sizing Information, Fan:VariableVolume, VAV WITH REHEAT FAN, Design Size Maximum Flow Rate [m3/s], 4.54455
 Component Sizing Information, Controller:WaterCoil, VAV WITH REHEAT_COOLC_CONTROLLER, Maximum Actuated Flow [m3/s], 4.15083E-003
 Component Sizing Information, Controller:WaterCoil, VAV WITH REHEAT_COOLC_CONTROLLER, Controller Convergence Tolerance, 1.14722E-004
 Component Sizing Information, Controller:WaterCoil, VAV WITH REHEAT_HEATC_CONTROLLER, Maximum Actuated Flow [m3/s], 2.58330E-004
Water Heater Information,WaterHeater:Mixed,SHWSYS1 WATER HEATER,3.0000,845000.0,0.232,0.6813
 Component Sizing Information, PlantLoop, COOLSYSSECONDARY, Maximum Loop Flow Rate [m3/s], 4.15083E-003
 Component Sizing Information, PlantLoop, COOLSYSSECONDARY, Plant Loop Volume [m3], 0.49810
 Component Sizing Information, Pump:VariableSpeed, COOLSYSSECONDARY PUMP, Design Flow Rate [m3/s], 4.15083E-003
 Component Sizing Information, Pump:VariableSpeed, COOLSYSSECONDARY PUMP, Design Power Consumption [W], 88.69288
 Component Sizing Information, Chiller:Electric:EIR, COOLSYSSECONDARY CHILLER, Design Size Reference Chilled Water Flow Rate [m3/s], 4.15083E-003
 Component Sizing Information, Chiller:Electric:EIR, COOLSYSSECONDARY CHILLER, User-Specified Reference Chilled Water Flow Rate [m3/s], 1.23960E-003
 Component Sizing Information, Chiller:Electric:EIR, COOLSYSSECONDARY CHILLER, Design Size Reference Capacity [W], 23414.50460
 Component Sizing Information, Chiller:Electric:EIR, COOLSYSSECONDARY CHILLER, Design Size Reference Condenser Fluid Flow Rate [m3/s], 1.31304E-003
 Component Sizing Information, Chiller:Electric:EIR, COOLSYSSECONDARY CHILLER, User-Specified Reference Condenser Fluid Flow Rate [m3/s], 1.93790E-003
! <Chiller Standard Rating Information>, Component Type, Component Name, IPLV in SI Units {W/W}, IPLV in IP Units {Btu/W-h}
 Chiller Standard Rating Information, Chiller:Electric:EIR, COOLSYSSECONDARY CHILLER, 3.04, 10.37
 Component Sizing Information, ThermalStorage:ChilledWater:Mixed, CHILLED WATER STORAGE TANK 1, Source Side Design Flow Rate [m3/s], 4.18195E-003
 Component Sizing Information, ThermalStorage:ChilledWater:Mixed, CHILLED WATER STORAGE TANK 1, Use Side Design Flow Rate [m3/s], 4.15083E-003
Chilled Water Tank Information,ThermalStorage:ChilledWater:Mixed,CHILLED WATER STORAGE TANK 1,50.0000,4.1508E-003,4.1819E-003
 Component Sizing Information, ThermalStorage:ChilledWater:Mixed, CHILLED WATER STORAGE TANK 1, Source Side Design Flow Rate [m3/s], 4.18195E-003
 Component Sizing Information, PlantLoop, SHWSYS1, Maximum Loop Flow Rate [m3/s], 1.38889E-005
 Component Sizing Information, PlantLoop, SHWSYS1, Plant Loop Volume [m3], 1.66667E-003
 Component Sizing Information, Pump:VariableSpeed, SHWSYS1 PUMP, Design Flow Rate [m3/s], 1.38889E-005
 Component Sizing Information, Pump:VariableSpeed, SHWSYS1 PUMP, Design Power Consumption [W], 0.00000
 Component Sizing Information, WaterHeater:Mixed, SHWSYS1 WATER HEATER, Use Side Design Flow Rate [m3/s], 1.38889E-005
 Component Sizing Information, PlantLoop, HEATSYS1, Maximum Loop Flow Rate [m3/s], 2.82655E-003
 Component Sizing Information, PlantLoop, HEATSYS1, Plant Loop Volume [m3], 0.33919
 Component Sizing Information, Pump:VariableSpeed, HEATSYS1 PUMP, Design Flow Rate [m3/s], 2.82655E-003
 Component Sizing Information, Pump:VariableSpeed, HEATSYS1 PUMP, Design Power Consumption [W], 60.39629
 Component Sizing Information, Boiler:HotWater, HEATSYS1 BOILER, Design Size Nominal Capacity [W], 127934.03504
 Component Sizing Information, Boiler:HotWater, HEATSYS1 BOILER, Design Size Design Water Flow Rate [m3/s], 2.82655E-003
 Component Sizing Information, PlantLoop, COOLSYSPRIMARY, Maximum Loop Flow Rate [m3/s], 4.18195E-003
 Component Sizing Information, PlantLoop, COOLSYSPRIMARY, Plant Loop Volume [m3], 0.50183
 Component Sizing Information, Pump:VariableSpeed, COOLSYSPRIMARY PUMP, Design Flow Rate [m3/s], 4.18195E-003
 Component Sizing Information, Pump:VariableSpeed, COOLSYSPRIMARY PUMP, Design Power Consumption [W], 89.35793
 Component Sizing Information, Chiller:Electric:EIR, COOLSYSPRIMARY CHILLER, Design Size Reference Chilled Water Flow Rate [m3/s], 4.18195E-003
 Component Sizing Information, Chiller:Electric:EIR, COOLSYSPRIMARY CHILLER, Design Size Reference Capacity [W], 87768.73512
 Component Sizing Information, Chiller:Electric:EIR, COOLSYSPRIMARY CHILLER, Design Size Reference Condenser Fluid Flow Rate [m3/s], 4.92189E-003
 Chiller Standard Rating Information, Chiller:Electric:EIR, COOLSYSPRIMARY CHILLER, 3.04, 10.37
 Component Sizing Information, CondenserLoop, TOWERWATERSYS, Maximum Loop Flow Rate [m3/s], 6.85979E-003
 Component Sizing Information, CondenserLoop, TOWERWATERSYS, Condenser Loop Volume [m3], 0.82317
 Component Sizing Information, Pump:ConstantSpeed, TOWERWATERSYS PUMP, Design Flow Rate [m3/s], 6.85979E-003
 Component Sizing Information, Pump:ConstantSpeed, TOWERWATERSYS PUMP, Design Power Consumption [W], 1813.02161
 Component Sizing Information, CoolingTower:SingleSpeed, TOWERWATERSYS COOLTOWER, Design Water Flow Rate [m3/s], 6.85979E-003
 Component Sizing Information, CoolingTower:SingleSpeed, TOWERWATERSYS COOLTOWER, Fan Power at Design Air Flow Rate [W], 1685.80544
 Component Sizing Information, CoolingTower:SingleSpeed, TOWERWATERSYS COOLTOWER, Design Air Flow Rate [m3/s], 4.54357
 Component Sizing Information, CoolingTower:SingleSpeed, TOWERWATERSYS COOLTOWER, U-Factor Times Area Value at Design Air Flow Rate [W/C], 9700.83972
 Component Sizing Information, CoolingTower:SingleSpeed, TOWERWATERSYS COOLTOWER, Free Convection Regime Air Flow Rate [m3/s], 0.45436
 Component Sizing Information, CoolingTower:SingleSpeed, TOWERWATERSYS COOLTOWER, Free Convection U-Factor Times Area Value [W/K], 970.08397
! <Environment>,Environment Name,Environment Type, Start Date, End Date, Start DayOfWeek, Duration {#days}, Source:Start DayOfWeek,  Use Daylight Saving, Use Holidays, Apply Weekend Holiday Rule,  Use Rain Values, Use Snow Values
! <Environment:Special Days>, Special Day Name, Special Day Type, Source, Start Date, Duration {#days}
! <Environment:Daylight Saving>, Daylight Saving Indicator, Source, Start Date, End Date
! <Environment:WarmupDays>, NumberofWarmupDays
Environment,RUNPERIOD 1,WeatherFileRunPeriod,01/01/2017,12/31/2017,Sunday,365,Use RunPeriod Specified Day,No,No,No,Yes,Yes
Environment:Daylight Saving,No,RunPeriod Object
Environment:Special Days,NEW YEARS DAY,Holiday,InputFile,01/01,  1
Environment:Special Days,VETERANS DAY,Holiday,InputFile,11/11,  1
Environment:Special Days,CHRISTMAS,Holiday,InputFile,12/25,  1
Environment:Special Days,INDEPENDENCE DAY,Holiday,InputFile,07/04,  1
Environment:Special Days,MLK DAY,Holiday,InputFile,01/16,  1
Environment:Special Days,PRESIDENTS DAY,Holiday,InputFile,02/20,  1
Environment:Special Days,MEMORIAL DAY,Holiday,InputFile,05/29,  1
Environment:Special Days,LABOR DAY,Holiday,InputFile,09/04,  1
Environment:Special Days,COLUMBUS DAY,Holiday,InputFile,10/09,  1
Environment:Special Days,THANKSGIVING,Holiday,InputFile,11/23,  1
Environment:WarmupDays,  6
! <Tabular Report>,Style,Unit Conversion
Tabular Report,HTML,None
! <Warmup Convergence Information>,Zone Name,Environment Type/Name,Average Warmup Temperature Difference {deltaC},Std Dev Warmup Temperature Difference {deltaC},Max Temperature Pass/Fail Convergence,Min Temperature Pass/Fail Convergence,Average Warmup Load Difference {W},Std Dev Warmup Load Difference {W},Heating Load Pass/Fail Convergence,Cooling Load Pass/Fail Convergence
 Warmup Convergence Information,ZN_1_FLR_1_SEC_1,RunPeriod: RUNPERIOD 1,0.1122389753,0.1513425214,Pass,Pass,0.4715559757,0.9910444900,Pass,Pass
 Warmup Convergence Information,ZN_1_FLR_1_SEC_2,RunPeriod: RUNPERIOD 1,0.4958183345,0.4640222998,Pass,Pass,0.5619973158,0.5533801156,Pass,Pass
 Warmup Convergence Information,ZN_1_FLR_1_SEC_3,RunPeriod: RUNPERIOD 1,0.5128156239,0.4473750963,Pass,Pass,0.6062049354,0.7064392423,Pass,Pass
 Warmup Convergence Information,ZN_1_FLR_1_SEC_4,RunPeriod: RUNPERIOD 1,0.5760376213,0.4846488036,Pass,Pass,0.5593978283,0.5506293560,Pass,Pass
 Warmup Convergence Information,ZN_1_FLR_1_SEC_5,RunPeriod: RUNPERIOD 1,0.1961287262,0.1905831590,Pass,Pass,0.5560519717,0.5410857286,Pass,Pass
! <Program Control Information:Threads/Parallel Sims>, Threading Supported,Maximum Number of Threads, Env Set Threads (OMP_NUM_THREADS), EP Env Set Threads (EP_OMP_NUM_THREADS), IDF Set Threads, Number of Threads Used (Interior Radiant Exchange), Number Nominal Surfaces, Number Parallel Sims
Program Control:Threads/Parallel Sims, No,1, N/A, N/A, N/A, N/A, N/A, N/A
End of Data
